REMARK  Name = temp_3d.pdb
REMARK  6 active torsions:
REMARK  status: ('A' for Active; 'I' for Inactive)
REMARK    1  A    between atoms: C3_3  and  O7_22
REMARK    2  A    between atoms: C4_4  and  O6_21
REMARK    3  A    between atoms: C6_6  and  C7_7
REMARK    4  A    between atoms: C8_8  and  O5_20
REMARK    5  A    between atoms: C11_12  and  O4_19
REMARK    6  A    between atoms: C13_14  and  O3_18
REMARK                            x       y       z     vdW  Elec       q    Type
REMARK                         _______ _______ _______ _____ _____    ______ ____
ROOT
ATOM      1  C7  UNL     1       0.332   0.310   0.038  0.00  0.00    +0.181 A 
ATOM      2  C8  UNL     1      -0.289   1.454  -0.401  0.00  0.00    +0.208 A 
ATOM      3  C9  UNL     1      -1.644   1.660  -0.445  0.00  0.00    +0.238 A 
ATOM      4  O1  UNL     1      -2.147   2.733  -0.859  0.00  0.00    -0.283 OA
ATOM      5  C10 UNL     1      -2.464   0.640  -0.015  0.00  0.00    +0.109 A 
ATOM      6  C11 UNL     1      -3.838   0.720  -0.008  0.00  0.00    +0.135 A 
ATOM      7  C12 UNL     1      -4.578  -0.355   0.442  0.00  0.00    +0.091 A 
ATOM      8  C13 UNL     1      -3.913  -1.481   0.873  0.00  0.00    +0.124 A 
ATOM      9  C14 UNL     1      -2.533  -1.550   0.861  0.00  0.00    +0.092 A 
ATOM     10  C15 UNL     1      -1.769  -0.472   0.409  0.00  0.00    +0.147 A 
ATOM     11  O2  UNL     1      -0.469  -0.627   0.434  0.00  0.00    -0.451 OA
ENDROOT
BRANCH   1  17
ATOM     12  C1  UNL     1       2.164  -1.170   0.577  0.00  0.00    +0.015 A 
ATOM     13  C2  UNL     1       3.481  -1.559   0.695  0.00  0.00    +0.050 A 
ATOM     14  C3  UNL     1       4.490  -0.699   0.323  0.00  0.00    +0.158 A 
ATOM     15  C4  UNL     1       4.135   0.529  -0.157  0.00  0.00    +0.159 A 
ATOM     16  C5  UNL     1       2.806   0.864  -0.253  0.00  0.00    +0.060 A 
ATOM     17  C6  UNL     1       1.757   0.055   0.099  0.00  0.00    +0.025 A 
BRANCH  15  18
ATOM     18  O6  UNL     1       5.105   1.420  -0.540  0.00  0.00    -0.503 OA
ATOM     19  H9  UNL     1       6.082   1.253  -0.501  0.00  0.00    +0.292 HD
ENDBRANCH  15  18
BRANCH  14  20
ATOM     20  O7  UNL     1       5.816  -1.087   0.441  0.00  0.00    -0.503 OA
ATOM     21  H10 UNL     1       6.080  -1.999   0.797  0.00  0.00    +0.292 HD
ENDBRANCH  14  20
ENDBRANCH   1  17
BRANCH   8  22
ATOM     22  O3  UNL     1      -4.678  -2.557   1.324  0.00  0.00    -0.507 OA
ATOM     23  H6  UNL     1      -4.889  -2.546   2.322  0.00  0.00    +0.292 HD
ENDBRANCH   8  22
BRANCH   6  24
ATOM     24  O4  UNL     1      -4.408   1.904  -0.464  0.00  0.00    -0.506 OA
ATOM     25  H7  UNL     1      -5.427   1.966  -0.460  0.00  0.00    +0.292 HD
ENDBRANCH   6  24
BRANCH   2  26
ATOM     26  O5  UNL     1       0.485   2.507  -0.843  0.00  0.00    -0.501 OA
ATOM     27  H8  UNL     1       0.162   3.378  -1.182  0.00  0.00    +0.292 HD
ENDBRANCH   2  26
TORSDOF 6
