REMARK  Name = temp_3d.pdb
REMARK  11 active torsions:
REMARK  status: ('A' for Active; 'I' for Inactive)
REMARK    1  A    between atoms: C2_2  and  O9_25
REMARK    2  A    between atoms: C3_3  and  O8_24
REMARK    3  A    between atoms: C4_4  and  O4_11
REMARK    4  A    between atoms: C6_6  and  C7_7
REMARK    5  A    between atoms: C6_6  and  O3_10
REMARK    6  A    between atoms: C7_7  and  O2_9
REMARK    7  A    between atoms: O4_11  and  C8_12
REMARK    8  A    between atoms: C8_12  and  C9_14
REMARK    9  A    between atoms: C10_15  and  C11_16
REMARK   10  A    between atoms: C13_18  and  O7_23
REMARK   11  A    between atoms: C14_19  and  O6_22
REMARK                            x       y       z     vdW  Elec       q    Type
REMARK                         _______ _______ _______ _____ _____    ______ ____
ROOT
ATOM      1  C1  UNL     1      -4.829   0.916   0.264  0.00  0.00    +0.080 C 
ATOM      2  C2  UNL     1      -3.972   1.215   1.470  0.00  0.00    +0.150 C 
ATOM      3  C3  UNL     1      -2.578   1.667   1.086  0.00  0.00    +0.184 C 
ATOM      4  C4  UNL     1      -1.983   0.611   0.222  0.00  0.00    +0.211 C 
ATOM      5  C5  UNL     1      -2.831   0.433  -1.034  0.00  0.00    +0.093 C 
ATOM      6  C6  UNL     1      -4.149  -0.168  -0.532  0.00  0.00    +0.168 C 
ENDROOT
BRANCH   6   7
ATOM      7  C7  UNL     1      -4.974  -0.626  -1.675  0.00  0.00    +0.337 C 
ATOM      8  O1  UNL     1      -5.197   0.425  -2.358  0.00  0.00    -0.248 OA
BRANCH   7   9
ATOM      9  O2  UNL     1      -5.616  -1.624  -2.359  0.00  0.00    -0.479 OA
ATOM     10  H8  UNL     1      -6.643  -1.726  -2.377  0.00  0.00    +0.295 HD
ENDBRANCH   7   9
ENDBRANCH   6   7
BRANCH   6  11
ATOM     11  O3  UNL     1      -3.811  -1.206   0.324  0.00  0.00    -0.377 OA
ATOM     12  H9  UNL     1      -4.441  -1.947   0.251  0.00  0.00    +0.211 HD
ENDBRANCH   6  11
BRANCH   3  13
ATOM     13  O8  UNL     1      -1.845   1.779   2.261  0.00  0.00    -0.386 OA
ATOM     14  H17 UNL     1      -2.289   1.305   3.010  0.00  0.00    +0.210 HD
ENDBRANCH   3  13
BRANCH   2  15
ATOM     15  O9  UNL     1      -4.003   0.235   2.430  0.00  0.00    -0.389 OA
ATOM     16  H18 UNL     1      -3.267  -0.394   2.447  0.00  0.00    +0.210 HD
ENDBRANCH   2  15
BRANCH   4  17
ATOM     17  O4  UNL     1      -0.636   0.734  -0.097  0.00  0.00    -0.455 OA
BRANCH  17  18
ATOM     18  C8  UNL     1       0.379  -0.130   0.206  0.00  0.00    +0.332 C 
ATOM     19  O5  UNL     1       0.122  -1.180   0.849  0.00  0.00    -0.246 OA
BRANCH  18  20
ATOM     20  C9  UNL     1       1.749   0.123  -0.191  0.00  0.00    +0.092 C 
ATOM     21  C10 UNL     1       2.721  -0.717   0.106  0.00  0.00    +0.015 C 
BRANCH  21  22
ATOM     22  C11 UNL     1       4.117  -0.564  -0.238  0.00  0.00    -0.021 A 
ATOM     23  C12 UNL     1       5.066  -1.512   0.124  0.00  0.00    +0.057 A 
ATOM     24  C13 UNL     1       6.384  -1.398  -0.184  0.00  0.00    +0.159 A 
ATOM     25  C14 UNL     1       6.854  -0.296  -0.895  0.00  0.00    +0.158 A 
ATOM     26  C15 UNL     1       5.950   0.682  -1.283  0.00  0.00    +0.050 A 
ATOM     27  C16 UNL     1       4.612   0.505  -0.936  0.00  0.00    +0.012 A 
BRANCH  25  28
ATOM     28  O6  UNL     1       8.189  -0.178  -1.209  0.00  0.00    -0.503 OA
ATOM     29  H15 UNL     1       8.579   0.606  -1.726  0.00  0.00    +0.292 HD
ENDBRANCH  25  28
BRANCH  24  30
ATOM     30  O7  UNL     1       7.277  -2.379   0.208  0.00  0.00    -0.503 OA
ATOM     31  H16 UNL     1       7.039  -3.217   0.727  0.00  0.00    +0.292 HD
ENDBRANCH  24  30
ENDBRANCH  21  22
ENDBRANCH  18  20
ENDBRANCH  17  18
ENDBRANCH   4  17
TORSDOF 11
