REMARK  Name = temp_3d.pdb
REMARK  6 active torsions:
REMARK  status: ('A' for Active; 'I' for Inactive)
REMARK    1  A    between atoms: C2_2  and  O6_21
REMARK    2  A    between atoms: C3_3  and  C10_13
REMARK    3  A    between atoms: C6_7  and  O3_12
REMARK    4  A    between atoms: C8_9  and  O2_11
REMARK    5  A    between atoms: C12_15  and  O5_20
REMARK    6  A    between atoms: C13_16  and  O4_19
REMARK                            x       y       z     vdW  Elec       q    Type
REMARK                         _______ _______ _______ _____ _____    ______ ____
ROOT
ATOM      1  C1  UNL     1      -1.046  -1.803   0.364  0.00  0.00    +0.078 C 
ATOM      2  C2  UNL     1      -0.342  -1.507   1.659  0.00  0.00    +0.164 C 
ATOM      3  C3  UNL     1       0.294  -0.160   1.718  0.00  0.00    +0.232 C 
ATOM      4  O1  UNL     1      -0.619   0.859   1.418  0.00  0.00    -0.481 OA
ATOM      5  C4  UNL     1      -1.696   0.662   0.564  0.00  0.00    +0.132 A 
ATOM      6  C5  UNL     1      -2.536   1.691   0.226  0.00  0.00    +0.091 A 
ATOM      7  C6  UNL     1      -3.607   1.484  -0.626  0.00  0.00    +0.124 A 
ATOM      8  C7  UNL     1      -3.813   0.211  -1.132  0.00  0.00    +0.091 A 
ATOM      9  C8  UNL     1      -2.959  -0.844  -0.790  0.00  0.00    +0.127 A 
ATOM     10  C9  UNL     1      -1.898  -0.611   0.061  0.00  0.00    +0.038 A 
ENDROOT
BRANCH   3  11
ATOM     11  C10 UNL     1       1.515   0.016   0.950  0.00  0.00    -0.001 A 
ATOM     12  C11 UNL     1       1.997   1.330   0.926  0.00  0.00    +0.056 A 
ATOM     13  C12 UNL     1       3.152   1.638   0.231  0.00  0.00    +0.159 A 
ATOM     14  C13 UNL     1       3.864   0.681  -0.455  0.00  0.00    +0.158 A 
ATOM     15  C14 UNL     1       3.399  -0.627  -0.441  0.00  0.00    +0.049 A 
ATOM     16  C15 UNL     1       2.236  -0.926   0.261  0.00  0.00    +0.011 A 
BRANCH  14  17
ATOM     17  O4  UNL     1       5.027   0.932  -1.168  0.00  0.00    -0.503 OA
ATOM     18  H12 UNL     1       5.548   0.225  -1.672  0.00  0.00    +0.292 HD
ENDBRANCH  14  17
BRANCH  13  19
ATOM     19  O5  UNL     1       3.626   2.947   0.211  0.00  0.00    -0.503 OA
ATOM     20  H13 UNL     1       4.453   3.196  -0.280  0.00  0.00    +0.292 HD
ENDBRANCH  13  19
ENDBRANCH   3  11
BRANCH   9  21
ATOM     21  O2  UNL     1      -3.318  -2.038  -1.387  0.00  0.00    -0.506 OA
ATOM     22  H7  UNL     1      -2.753  -2.854  -1.194  0.00  0.00    +0.292 HD
ENDBRANCH   9  21
BRANCH   7  23
ATOM     23  O3  UNL     1      -4.478   2.529  -0.984  0.00  0.00    -0.507 OA
ATOM     24  H8  UNL     1      -4.318   3.442  -0.612  0.00  0.00    +0.292 HD
ENDBRANCH   7  23
BRANCH   2  25
ATOM     25  O6  UNL     1       0.497  -2.503   2.104  0.00  0.00    -0.387 OA
ATOM     26  H14 UNL     1       0.261  -3.402   1.812  0.00  0.00    +0.210 HD
ENDBRANCH   2  25
TORSDOF 6
