REMARK  10 active torsions:
REMARK  status: ('A' for Active; 'I' for Inactive)
REMARK    1  A    between atoms: N3_31  and  C7_30 
REMARK       I    between atoms: N3_31  and  C8_32 
REMARK    2  A    between atoms: C6_29  and  N2_9 
REMARK    3  A    between atoms: C6_29  and  C7_30 
REMARK    4  A    between atoms: C8_32  and  C9_34 
REMARK    5  A    between atoms: C10_11  and  N4_10 
REMARK    6  A    between atoms: C13_15  and  O1_18 
REMARK    7  A    between atoms: C20_21  and  C22_25 
REMARK    8  A    between atoms: C16_19  and  O1_18 
REMARK    9  A    between atoms: N4_10  and  C1_4 
REMARK   10  A    between atoms: C9_34  and  C23_35 
ROOT
HETATM    1  N1  03P A1023      14.734  33.559  13.161  1.00 17.98    -0.203 NA
HETATM    2  C4  03P A1023      15.890  35.034  17.235  1.00 21.42     0.078 A 
HETATM    3  C5  03P A1023      14.518  34.854  17.058  1.00 16.61     0.039 A 
HETATM    4  C1  03P A1023      15.875  33.886  13.812  1.00 17.88     0.181 A 
HETATM    5  C   03P A1023      13.519  33.645  13.738  1.00 20.61     0.201 A 
HETATM    6  C3  03P A1023      15.733  34.309  15.146  1.00 15.94     0.114 A 
HETATM    7  C2  03P A1023      14.475  34.412  15.705  1.00 17.43     0.103 A 
HETATM    8  N   03P A1023      13.371  34.064  15.005  1.00 19.18    -0.223 NA
HETATM    9  N2  03P A1023      16.593  34.740  16.100  1.00 20.76    -0.321 N 
ENDROOT
BRANCH   4  10
HETATM   10  N4  03P A1023      17.081  33.810  13.180  1.00 21.11    -0.225 NA
BRANCH  10  11
HETATM   11  C10 03P A1023      17.224  33.527  11.835  1.00 22.66     0.084 A 
HETATM   12  C11 03P A1023      16.476  34.203  10.862  1.00 19.04     0.033 A 
HETATM   13  C12 03P A1023      16.654  33.895   9.521  1.00 20.40     0.082 A 
HETATM   14 CL   03P A1023      15.676  34.766   8.319  1.00 23.88    -0.080 Cl
HETATM   15  C13 03P A1023      17.550  32.921   9.098  1.00 24.10     0.111 A 
HETATM   16  C14 03P A1023      18.317  32.250  10.052  1.00 21.43     0.027 A 
HETATM   17  C15 03P A1023      18.135  32.543  11.422  1.00 22.75     0.021 A 
BRANCH  15  18
HETATM   18  O1  03P A1023      17.688  32.640   7.745  1.00 22.89    -0.306 OA
BRANCH  18  19
HETATM   19  C16 03P A1023      17.456  31.366   7.300  1.00 22.06     0.100 A 
HETATM   20  C21 03P A1023      16.266  30.695   7.625  1.00 22.70     0.029 A 
HETATM   21  C20 03P A1023      16.048  29.394   7.164  1.00 21.17     0.073 A 
HETATM   22  C19 03P A1023      17.012  28.782   6.348  1.00 24.27     0.004 A 
HETATM   23  C18 03P A1023      18.188  29.452   6.017  1.00 23.60     0.002 A 
HETATM   24  C17 03P A1023      18.404  30.743   6.486  1.00 25.76     0.025 A 
BRANCH  21  25
HETATM   25  C22 03P A1023      14.802  28.623   7.500  1.00 30.16     0.419 C 
HETATM   26  F1  03P A1023      15.102  27.632   8.330  1.00 29.29    -0.166 F 
HETATM   27  F   03P A1023      14.283  28.118   6.395  1.00 28.42    -0.166 F 
HETATM   28  F2  03P A1023      13.867  29.356   8.056  1.00 28.73    -0.166 F 
ENDBRANCH  21  25
ENDBRANCH  18  19
ENDBRANCH  15  18
ENDBRANCH  10  11
ENDBRANCH   4  10
BRANCH   9  29
HETATM   29  C6  03P A1023      18.073  34.788  16.054  1.00 24.01     0.133 C 
BRANCH  29  30
HETATM   30  C7  03P A1023      18.783  36.032  15.531  1.00 30.17     0.153 C 
BRANCH  30  31
HETATM   31  N3  03P A1023      20.225  35.775  15.395  1.00 30.57    -0.236 NA
HETATM   32  C8  03P A1023      20.715  35.001  14.407  1.00 30.73     0.254 C 
HETATM   33  O   03P A1023      20.014  34.442  13.583  1.00 29.30    -0.271 OA
BRANCH  32  34
HETATM   34  C9  03P A1023      22.220  34.825  14.324  1.00 33.39     0.120 C 
BRANCH  34  35
HETATM   35  C23 03P A1023      22.607  33.386  13.956  1.00 44.14     0.136 C 
HETATM   36  C25 03P A1023      22.147  32.956  12.561  1.00 45.99     0.034 C 
HETATM   37  O2  03P A1023      22.020  32.500  14.919  1.00 48.73    -0.226 OA
HETATM   38  C24 03P A1023      24.121  33.228  14.043  1.00 50.94     0.034 C 
ENDBRANCH  34  35
ENDBRANCH  32  34
ENDBRANCH  30  31
ENDBRANCH  29  30
ENDBRANCH   9  29
TORSDOF 10
