MODEL 1
REMARK VINA RESULT:      -8.0      0.000      0.000
REMARK  Name = temp_3d.pdb
REMARK  11 active torsions:
REMARK  status: ('A' for Active; 'I' for Inactive)
REMARK    1  A    between atoms: C2_2  and  O9_25
REMARK    2  A    between atoms: C3_3  and  O8_24
REMARK    3  A    between atoms: C4_4  and  O4_11
REMARK    4  A    between atoms: C6_6  and  C7_7
REMARK    5  A    between atoms: C6_6  and  O3_10
REMARK    6  A    between atoms: C7_7  and  O2_9
REMARK    7  A    between atoms: O4_11  and  C8_12
REMARK    8  A    between atoms: C8_12  and  C9_14
REMARK    9  A    between atoms: C10_15  and  C11_16
REMARK   10  A    between atoms: C13_18  and  O7_23
REMARK   11  A    between atoms: C14_19  and  O6_22
REMARK                            x       y       z     vdW  Elec       q    Type
REMARK                         _______ _______ _______ _____ _____    ______ ____
ROOT
ATOM      1  C1  UNL     1      16.627  36.024  18.278  0.00  0.00    +0.080 C 
ATOM      2  C2  UNL     1      18.097  35.813  18.547  0.00  0.00    +0.150 C 
ATOM      3  C3  UNL     1      18.934  35.929  17.290  0.00  0.00    +0.184 C 
ATOM      4  C4  UNL     1      18.398  34.955  16.300  0.00  0.00    +0.211 C 
ATOM      5  C5  UNL     1      16.943  35.287  15.983  0.00  0.00    +0.093 C 
ATOM      6  C6  UNL     1      16.184  34.985  17.280  0.00  0.00    +0.168 C 
ENDROOT
BRANCH   6   7
ATOM      7  C7  UNL     1      14.721  35.025  17.041  0.00  0.00    +0.337 C 
ATOM      8  O1  UNL     1      14.299  35.983  17.765  0.00  0.00    -0.248 OA
BRANCH   7   9
ATOM      9  O2  UNL     1      13.599  34.538  16.425  0.00  0.00    -0.479 OA
ATOM     10  H8  UNL     1      13.587  34.223  15.442  0.00  0.00    +0.295 HD
ENDBRANCH   7   9
ENDBRANCH   6   7
BRANCH   6  11
ATOM     11  O3  UNL     1      16.614  33.739  17.710  0.00  0.00    -0.377 OA
ATOM     12  H9  UNL     1      16.842  33.161  16.958  0.00  0.00    +0.211 HD
ENDBRANCH   6  11
BRANCH   3  13
ATOM     13  O8  UNL     1      20.236  35.584  17.630  0.00  0.00    -0.386 OA
ATOM     14  H17 UNL     1      20.592  34.881  17.028  0.00  0.00    +0.210 HD
ENDBRANCH   3  13
BRANCH   2  15
ATOM     15  O9  UNL     1      18.369  34.701  19.305  0.00  0.00    -0.389 OA
ATOM     16  H18 UNL     1      19.153  34.184  19.070  0.00  0.00    +0.210 HD
ENDBRANCH   2  15
BRANCH   4  17
ATOM     17  O4  UNL     1      19.133  34.763  15.135  0.00  0.00    -0.455 OA
BRANCH  17  18
ATOM     18  C8  UNL     1      19.193  33.639  14.359  0.00  0.00    +0.332 C 
ATOM     19  O5  UNL     1      20.026  32.740  14.642  0.00  0.00    -0.246 OA
BRANCH  18  20
ATOM     20  C9  UNL     1      18.325  33.446  13.216  0.00  0.00    +0.092 C 
ATOM     21  C10 UNL     1      18.661  33.870  12.013  0.00  0.00    +0.015 C 
BRANCH  21  22
ATOM     22  C11 UNL     1      17.874  33.732  10.808  0.00  0.00    -0.021 A 
ATOM     23  C12 UNL     1      16.989  34.721  10.397  0.00  0.00    +0.057 A 
ATOM     24  C13 UNL     1      16.236  34.622   9.271  0.00  0.00    +0.159 A 
ATOM     25  C14 UNL     1      16.321  33.494   8.457  0.00  0.00    +0.158 A 
ATOM     26  C15 UNL     1      17.190  32.475   8.819  0.00  0.00    +0.050 A 
ATOM     27  C16 UNL     1      17.934  32.639   9.986  0.00  0.00    +0.012 A 
BRANCH  25  28
ATOM     28  O6  UNL     1      15.560  33.392   7.315  0.00  0.00    -0.503 OA
ATOM     29  H15 UNL     1      14.949  32.604   7.114  0.00  0.00    +0.292 HD
ENDBRANCH  25  28
BRANCH  24  30
ATOM     30  O7  UNL     1      15.373  35.644   8.920  0.00  0.00    -0.503 OA
ATOM     31  H16 UNL     1      14.371  35.552   8.800  0.00  0.00    +0.292 HD
ENDBRANCH  24  30
ENDBRANCH  21  22
ENDBRANCH  18  20
ENDBRANCH  17  18
ENDBRANCH   4  17
TORSDOF 11
ENDMDL
MODEL 2
REMARK VINA RESULT:      -7.6      3.020      5.800
REMARK  Name = temp_3d.pdb
REMARK  11 active torsions:
REMARK  status: ('A' for Active; 'I' for Inactive)
REMARK    1  A    between atoms: C2_2  and  O9_25
REMARK    2  A    between atoms: C3_3  and  O8_24
REMARK    3  A    between atoms: C4_4  and  O4_11
REMARK    4  A    between atoms: C6_6  and  C7_7
REMARK    5  A    between atoms: C6_6  and  O3_10
REMARK    6  A    between atoms: C7_7  and  O2_9
REMARK    7  A    between atoms: O4_11  and  C8_12
REMARK    8  A    between atoms: C8_12  and  C9_14
REMARK    9  A    between atoms: C10_15  and  C11_16
REMARK   10  A    between atoms: C13_18  and  O7_23
REMARK   11  A    between atoms: C14_19  and  O6_22
REMARK                            x       y       z     vdW  Elec       q    Type
REMARK                         _______ _______ _______ _____ _____    ______ ____
ROOT
ATOM      1  C1  UNL     1      18.815  32.617  14.406  0.00  0.00    +0.080 C 
ATOM      2  C2  UNL     1      17.561  33.437  14.218  0.00  0.00    +0.150 C 
ATOM      3  C3  UNL     1      17.140  33.515  12.765  0.00  0.00    +0.184 C 
ATOM      4  C4  UNL     1      18.288  34.059  11.990  0.00  0.00    +0.211 C 
ATOM      5  C5  UNL     1      19.490  33.130  12.128  0.00  0.00    +0.093 C 
ATOM      6  C6  UNL     1      19.913  33.255  13.596  0.00  0.00    +0.168 C 
ENDROOT
BRANCH   6   7
ATOM      7  C7  UNL     1      21.224  32.598  13.812  0.00  0.00    +0.337 C 
ATOM      8  O1  UNL     1      21.927  32.934  12.806  0.00  0.00    -0.248 OA
BRANCH   7   9
ATOM      9  O2  UNL     1      22.052  31.805  14.562  0.00  0.00    -0.479 OA
ATOM     10  H8  UNL     1      22.576  31.007  14.170  0.00  0.00    +0.295 HD
ENDBRANCH   7   9
ENDBRANCH   6   7
BRANCH   6  11
ATOM     11  O3  UNL     1      19.950  34.612  13.884  0.00  0.00    -0.377 OA
ATOM     12  H9  UNL     1      20.845  34.895  14.151  0.00  0.00    +0.211 HD
ENDBRANCH   6  11
BRANCH   3  13
ATOM     13  O8  UNL     1      16.068  34.397  12.696  0.00  0.00    -0.386 OA
ATOM     14  H17 UNL     1      15.785  34.692  13.599  0.00  0.00    +0.210 HD
ENDBRANCH   3  13
BRANCH   2  15
ATOM     15  O9  UNL     1      17.587  34.647  14.864  0.00  0.00    -0.389 OA
ATOM     16  H18 UNL     1      17.977  34.670  15.750  0.00  0.00    +0.210 HD
ENDBRANCH   2  15
BRANCH   4  17
ATOM     17  O4  UNL     1      18.060  34.388  10.659  0.00  0.00    -0.455 OA
BRANCH  17  18
ATOM     18  C8  UNL     1      16.857  34.510  10.021  0.00  0.00    +0.332 C 
ATOM     19  O5  UNL     1      16.280  35.628  10.004  0.00  0.00    -0.246 OA
BRANCH  18  20
ATOM     20  C9  UNL     1      16.220  33.390   9.359  0.00  0.00    +0.092 C 
ATOM     21  C10 UNL     1      16.915  32.515   8.658  0.00  0.00    +0.015 C 
BRANCH  21  22
ATOM     22  C11 UNL     1      16.384  31.367   7.959  0.00  0.00    -0.021 A 
ATOM     23  C12 UNL     1      17.209  30.350   7.493  0.00  0.00    +0.057 A 
ATOM     24  C13 UNL     1      16.742  29.259   6.834  0.00  0.00    +0.159 A 
ATOM     25  C14 UNL     1      15.379  29.107   6.589  0.00  0.00    +0.158 A 
ATOM     26  C15 UNL     1      14.508  30.091   7.032  0.00  0.00    +0.050 A 
ATOM     27  C16 UNL     1      15.051  31.185   7.703  0.00  0.00    +0.012 A 
BRANCH  25  28
ATOM     28  O6  UNL     1      14.902  28.001   5.921  0.00  0.00    -0.503 OA
ATOM     29  H15 UNL     1      14.162  28.039   5.225  0.00  0.00    +0.292 HD
ENDBRANCH  25  28
BRANCH  24  30
ATOM     30  O7  UNL     1      17.619  28.283   6.395  0.00  0.00    -0.503 OA
ATOM     31  H16 UNL     1      17.506  27.285   6.537  0.00  0.00    +0.292 HD
ENDBRANCH  24  30
ENDBRANCH  21  22
ENDBRANCH  18  20
ENDBRANCH  17  18
ENDBRANCH   4  17
TORSDOF 11
ENDMDL
MODEL 3
REMARK VINA RESULT:      -7.6      2.830      5.001
REMARK  Name = temp_3d.pdb
REMARK  11 active torsions:
REMARK  status: ('A' for Active; 'I' for Inactive)
REMARK    1  A    between atoms: C2_2  and  O9_25
REMARK    2  A    between atoms: C3_3  and  O8_24
REMARK    3  A    between atoms: C4_4  and  O4_11
REMARK    4  A    between atoms: C6_6  and  C7_7
REMARK    5  A    between atoms: C6_6  and  O3_10
REMARK    6  A    between atoms: C7_7  and  O2_9
REMARK    7  A    between atoms: O4_11  and  C8_12
REMARK    8  A    between atoms: C8_12  and  C9_14
REMARK    9  A    between atoms: C10_15  and  C11_16
REMARK   10  A    between atoms: C13_18  and  O7_23
REMARK   11  A    between atoms: C14_19  and  O6_22
REMARK                            x       y       z     vdW  Elec       q    Type
REMARK                         _______ _______ _______ _____ _____    ______ ____
ROOT
ATOM      1  C1  UNL     1      19.797  33.616  15.088  0.00  0.00    +0.080 C 
ATOM      2  C2  UNL     1      20.667  32.679  14.287  0.00  0.00    +0.150 C 
ATOM      3  C3  UNL     1      20.707  33.048  12.818  0.00  0.00    +0.184 C 
ATOM      4  C4  UNL     1      19.304  33.074  12.321  0.00  0.00    +0.211 C 
ATOM      5  C5  UNL     1      18.502  34.118  13.093  0.00  0.00    +0.093 C 
ATOM      6  C6  UNL     1      18.403  33.559  14.517  0.00  0.00    +0.168 C 
ENDROOT
BRANCH   6   7
ATOM      7  C7  UNL     1      17.437  34.351  15.314  0.00  0.00    +0.337 C 
ATOM      8  O1  UNL     1      17.982  35.495  15.445  0.00  0.00    -0.248 OA
BRANCH   7   9
ATOM      9  O2  UNL     1      16.246  34.459  15.981  0.00  0.00    -0.479 OA
ATOM     10  H8  UNL     1      15.775  35.361  16.154  0.00  0.00    +0.295 HD
ENDBRANCH   7   9
ENDBRANCH   6   7
BRANCH   6  11
ATOM     11  O3  UNL     1      18.024  32.231  14.396  0.00  0.00    -0.377 OA
ATOM     12  H9  UNL     1      18.747  31.629  14.653  0.00  0.00    +0.211 HD
ENDBRANCH   6  11
BRANCH   3  13
ATOM     13  O8  UNL     1      21.416  32.048  12.163  0.00  0.00    -0.386 OA
ATOM     14  H17 UNL     1      21.524  31.247  12.737  0.00  0.00    +0.210 HD
ENDBRANCH   3  13
BRANCH   2  15
ATOM     15  O9  UNL     1      20.423  31.351  14.529  0.00  0.00    -0.389 OA
ATOM     16  H18 UNL     1      20.989  30.906  15.177  0.00  0.00    +0.210 HD
ENDBRANCH   2  15
BRANCH   4  17
ATOM     17  O4  UNL     1      19.116  33.211  10.951  0.00  0.00    -0.455 OA
BRANCH  17  18
ATOM     18  C8  UNL     1      17.952  33.484  10.288  0.00  0.00    +0.332 C 
ATOM     19  O5  UNL     1      17.588  34.680  10.151  0.00  0.00    -0.246 OA
BRANCH  18  20
ATOM     20  C9  UNL     1      17.120  32.437   9.732  0.00  0.00    +0.092 C 
ATOM     21  C10 UNL     1      17.198  32.092   8.462  0.00  0.00    +0.015 C 
BRANCH  21  22
ATOM     22  C11 UNL     1      16.417  31.067   7.806  0.00  0.00    -0.021 A 
ATOM     23  C12 UNL     1      17.018  29.981   7.182  0.00  0.00    +0.057 A 
ATOM     24  C13 UNL     1      16.314  29.001   6.557  0.00  0.00    +0.159 A 
ATOM     25  C14 UNL     1      14.922  29.045   6.514  0.00  0.00    +0.158 A 
ATOM     26  C15 UNL     1      14.269  30.108   7.121  0.00  0.00    +0.050 A 
ATOM     27  C16 UNL     1      15.050  31.079   7.745  0.00  0.00    +0.012 A 
BRANCH  25  28
ATOM     28  O6  UNL     1      14.206  28.054   5.882  0.00  0.00    -0.503 OA
ATOM     29  H15 UNL     1      14.497  27.080   5.853  0.00  0.00    +0.292 HD
ENDBRANCH  25  28
BRANCH  24  30
ATOM     30  O7  UNL     1      16.975  27.946   5.954  0.00  0.00    -0.503 OA
ATOM     31  H16 UNL     1      17.244  27.083   6.412  0.00  0.00    +0.292 HD
ENDBRANCH  24  30
ENDBRANCH  21  22
ENDBRANCH  18  20
ENDBRANCH  17  18
ENDBRANCH   4  17
TORSDOF 11
ENDMDL
MODEL 4
REMARK VINA RESULT:      -7.5      3.646      7.249
REMARK  Name = temp_3d.pdb
REMARK  11 active torsions:
REMARK  status: ('A' for Active; 'I' for Inactive)
REMARK    1  A    between atoms: C2_2  and  O9_25
REMARK    2  A    between atoms: C3_3  and  O8_24
REMARK    3  A    between atoms: C4_4  and  O4_11
REMARK    4  A    between atoms: C6_6  and  C7_7
REMARK    5  A    between atoms: C6_6  and  O3_10
REMARK    6  A    between atoms: C7_7  and  O2_9
REMARK    7  A    between atoms: O4_11  and  C8_12
REMARK    8  A    between atoms: C8_12  and  C9_14
REMARK    9  A    between atoms: C10_15  and  C11_16
REMARK   10  A    between atoms: C13_18  and  O7_23
REMARK   11  A    between atoms: C14_19  and  O6_22
REMARK                            x       y       z     vdW  Elec       q    Type
REMARK                         _______ _______ _______ _____ _____    ______ ____
ROOT
ATOM      1  C1  UNL     1      24.825  34.739  13.824  0.00  0.00    +0.080 C 
ATOM      2  C2  UNL     1      24.173  33.735  14.744  0.00  0.00    +0.150 C 
ATOM      3  C3  UNL     1      23.242  32.797  14.003  0.00  0.00    +0.184 C 
ATOM      4  C4  UNL     1      22.242  33.631  13.281  0.00  0.00    +0.211 C 
ATOM      5  C5  UNL     1      22.953  34.544  12.286  0.00  0.00    +0.093 C 
ATOM      6  C6  UNL     1      23.734  35.535  13.157  0.00  0.00    +0.168 C 
ENDROOT
BRANCH   6   7
ATOM      7  C7  UNL     1      24.273  36.637  12.325  0.00  0.00    +0.337 C 
ATOM      8  O1  UNL     1      23.623  37.669  12.691  0.00  0.00    -0.248 OA
BRANCH   7   9
ATOM      9  O2  UNL     1      25.125  37.093  11.354  0.00  0.00    -0.479 OA
ATOM     10  H8  UNL     1      25.972  36.580  11.061  0.00  0.00    +0.295 HD
ENDBRANCH   7   9
ENDBRANCH   6   7
BRANCH   6  11
ATOM     11  O3  UNL     1      22.854  35.989  14.128  0.00  0.00    -0.377 OA
ATOM     12  H9  UNL     1      23.241  36.719  14.646  0.00  0.00    +0.211 HD
ENDBRANCH   6  11
BRANCH   3  13
ATOM     13  O8  UNL     1      22.601  32.017  14.957  0.00  0.00    -0.386 OA
ATOM     14  H17 UNL     1      22.196  32.577  15.668  0.00  0.00    +0.210 HD
ENDBRANCH   3  13
BRANCH   2  15
ATOM     15  O9  UNL     1      23.631  34.290  15.876  0.00  0.00    -0.389 OA
ATOM     16  H18 UNL     1      22.717  34.603  15.824  0.00  0.00    +0.210 HD
ENDBRANCH   2  15
BRANCH   4  17
ATOM     17  O4  UNL     1      21.177  32.970  12.681  0.00  0.00    -0.455 OA
BRANCH  17  18
ATOM     18  C8  UNL     1      19.895  33.417  12.525  0.00  0.00    +0.332 C 
ATOM     19  O5  UNL     1      19.489  33.735  11.378  0.00  0.00    -0.246 OA
BRANCH  18  20
ATOM     20  C9  UNL     1      18.980  33.536  13.643  0.00  0.00    +0.092 C 
ATOM     21  C10 UNL     1      18.023  34.443  13.659  0.00  0.00    +0.015 C 
BRANCH  21  22
ATOM     22  C11 UNL     1      17.061  34.651  14.717  0.00  0.00    -0.021 A 
ATOM     23  C12 UNL     1      15.715  34.348  14.550  0.00  0.00    +0.057 A 
ATOM     24  C13 UNL     1      14.786  34.531  15.524  0.00  0.00    +0.159 A 
ATOM     25  C14 UNL     1      15.152  35.043  16.766  0.00  0.00    +0.158 A 
ATOM     26  C15 UNL     1      16.484  35.363  16.990  0.00  0.00    +0.050 A 
ATOM     27  C16 UNL     1      17.386  35.152  15.949  0.00  0.00    +0.012 A 
BRANCH  25  28
ATOM     28  O6  UNL     1      14.213  35.229  17.756  0.00  0.00    -0.503 OA
ATOM     29  H15 UNL     1      13.372  34.665  17.847  0.00  0.00    +0.292 HD
ENDBRANCH  25  28
BRANCH  24  30
ATOM     30  O7  UNL     1      13.461  34.209  15.290  0.00  0.00    -0.503 OA
ATOM     31  H16 UNL     1      13.103  33.273  15.133  0.00  0.00    +0.292 HD
ENDBRANCH  24  30
ENDBRANCH  21  22
ENDBRANCH  18  20
ENDBRANCH  17  18
ENDBRANCH   4  17
TORSDOF 11
ENDMDL
MODEL 5
REMARK VINA RESULT:      -7.1      2.681      4.940
REMARK  Name = temp_3d.pdb
REMARK  11 active torsions:
REMARK  status: ('A' for Active; 'I' for Inactive)
REMARK    1  A    between atoms: C2_2  and  O9_25
REMARK    2  A    between atoms: C3_3  and  O8_24
REMARK    3  A    between atoms: C4_4  and  O4_11
REMARK    4  A    between atoms: C6_6  and  C7_7
REMARK    5  A    between atoms: C6_6  and  O3_10
REMARK    6  A    between atoms: C7_7  and  O2_9
REMARK    7  A    between atoms: O4_11  and  C8_12
REMARK    8  A    between atoms: C8_12  and  C9_14
REMARK    9  A    between atoms: C10_15  and  C11_16
REMARK   10  A    between atoms: C13_18  and  O7_23
REMARK   11  A    between atoms: C14_19  and  O6_22
REMARK                            x       y       z     vdW  Elec       q    Type
REMARK                         _______ _______ _______ _____ _____    ______ ____
ROOT
ATOM      1  C1  UNL     1      23.540  33.588  16.314  0.00  0.00    +0.080 C 
ATOM      2  C2  UNL     1      23.095  33.117  14.950  0.00  0.00    +0.150 C 
ATOM      3  C3  UNL     1      22.142  34.091  14.289  0.00  0.00    +0.184 C 
ATOM      4  C4  UNL     1      20.994  34.298  15.214  0.00  0.00    +0.211 C 
ATOM      5  C5  UNL     1      21.492  34.880  16.533  0.00  0.00    +0.093 C 
ATOM      6  C6  UNL     1      22.312  33.753  17.172  0.00  0.00    +0.168 C 
ENDROOT
BRANCH   6   7
ATOM      7  C7  UNL     1      22.649  34.093  18.574  0.00  0.00    +0.337 C 
ATOM      8  O1  UNL     1      23.564  33.269  18.898  0.00  0.00    -0.248 OA
BRANCH   7   9
ATOM      9  O2  UNL     1      22.461  34.857  19.695  0.00  0.00    -0.479 OA
ATOM     10  H8  UNL     1      21.821  34.590  20.460  0.00  0.00    +0.295 HD
ENDBRANCH   7   9
ENDBRANCH   6   7
BRANCH   6  11
ATOM     11  O3  UNL     1      21.544  32.602  17.078  0.00  0.00    -0.377 OA
ATOM     12  H9  UNL     1      21.900  31.889  17.641  0.00  0.00    +0.211 HD
ENDBRANCH   6  11
BRANCH   3  13
ATOM     13  O8  UNL     1      21.696  33.496  13.115  0.00  0.00    -0.386 OA
ATOM     14  H17 UNL     1      21.172  32.676  13.302  0.00  0.00    +0.210 HD
ENDBRANCH   3  13
BRANCH   2  15
ATOM     15  O9  UNL     1      22.676  31.811  14.923  0.00  0.00    -0.389 OA
ATOM     16  H18 UNL     1      22.109  31.541  14.186  0.00  0.00    +0.210 HD
ENDBRANCH   2  15
BRANCH   4  17
ATOM     17  O4  UNL     1      19.907  35.015  14.729  0.00  0.00    -0.455 OA
BRANCH  17  18
ATOM     18  C8  UNL     1      18.611  34.596  14.612  0.00  0.00    +0.332 C 
ATOM     19  O5  UNL     1      17.950  34.344  15.652  0.00  0.00    -0.246 OA
BRANCH  18  20
ATOM     20  C9  UNL     1      17.969  34.432  13.324  0.00  0.00    +0.092 C 
ATOM     21  C10 UNL     1      18.478  33.649  12.393  0.00  0.00    +0.015 C 
BRANCH  21  22
ATOM     22  C11 UNL     1      17.923  33.414  11.078  0.00  0.00    -0.021 A 
ATOM     23  C12 UNL     1      18.247  32.281  10.342  0.00  0.00    +0.057 A 
ATOM     24  C13 UNL     1      17.743  32.031   9.105  0.00  0.00    +0.159 A 
ATOM     25  C14 UNL     1      16.857  32.923   8.506  0.00  0.00    +0.158 A 
ATOM     26  C15 UNL     1      16.498  34.071   9.196  0.00  0.00    +0.050 A 
ATOM     27  C16 UNL     1      17.050  34.269  10.461  0.00  0.00    +0.012 A 
BRANCH  25  28
ATOM     28  O6  UNL     1      16.345  32.672   7.253  0.00  0.00    -0.503 OA
ATOM     29  H15 UNL     1      16.852  32.852   6.390  0.00  0.00    +0.292 HD
ENDBRANCH  25  28
BRANCH  24  30
ATOM     30  O7  UNL     1      18.108  30.882   8.426  0.00  0.00    -0.503 OA
ATOM     31  H16 UNL     1      19.022  30.701   8.025  0.00  0.00    +0.292 HD
ENDBRANCH  24  30
ENDBRANCH  21  22
ENDBRANCH  18  20
ENDBRANCH  17  18
ENDBRANCH   4  17
TORSDOF 11
ENDMDL
MODEL 6
REMARK VINA RESULT:      -7.0      3.437      6.287
REMARK  Name = temp_3d.pdb
REMARK  11 active torsions:
REMARK  status: ('A' for Active; 'I' for Inactive)
REMARK    1  A    between atoms: C2_2  and  O9_25
REMARK    2  A    between atoms: C3_3  and  O8_24
REMARK    3  A    between atoms: C4_4  and  O4_11
REMARK    4  A    between atoms: C6_6  and  C7_7
REMARK    5  A    between atoms: C6_6  and  O3_10
REMARK    6  A    between atoms: C7_7  and  O2_9
REMARK    7  A    between atoms: O4_11  and  C8_12
REMARK    8  A    between atoms: C8_12  and  C9_14
REMARK    9  A    between atoms: C10_15  and  C11_16
REMARK   10  A    between atoms: C13_18  and  O7_23
REMARK   11  A    between atoms: C14_19  and  O6_22
REMARK                            x       y       z     vdW  Elec       q    Type
REMARK                         _______ _______ _______ _____ _____    ______ ____
ROOT
ATOM      1  C1  UNL     1      23.221  33.462  13.771  0.00  0.00    +0.080 C 
ATOM      2  C2  UNL     1      23.923  34.797  13.821  0.00  0.00    +0.150 C 
ATOM      3  C3  UNL     1      23.293  35.741  14.825  0.00  0.00    +0.184 C 
ATOM      4  C4  UNL     1      21.853  35.877  14.474  0.00  0.00    +0.211 C 
ATOM      5  C5  UNL     1      21.172  34.514  14.550  0.00  0.00    +0.093 C 
ATOM      6  C6  UNL     1      21.782  33.708  13.397  0.00  0.00    +0.168 C 
ENDROOT
BRANCH   6   7
ATOM      7  C7  UNL     1      21.031  32.447  13.197  0.00  0.00    +0.337 C 
ATOM      8  O1  UNL     1      20.291  32.340  14.228  0.00  0.00    -0.248 OA
BRANCH   7   9
ATOM      9  O2  UNL     1      20.740  31.337  12.449  0.00  0.00    -0.479 OA
ATOM     10  H8  UNL     1      19.978  31.308  11.753  0.00  0.00    +0.295 HD
ENDBRANCH   7   9
ENDBRANCH   6   7
BRANCH   6  11
ATOM     11  O3  UNL     1      21.745  34.528  12.278  0.00  0.00    -0.377 OA
ATOM     12  H9  UNL     1      21.272  34.100  11.540  0.00  0.00    +0.211 HD
ENDBRANCH   6  11
BRANCH   3  13
ATOM     13  O8  UNL     1      23.927  36.970  14.687  0.00  0.00    -0.386 OA
ATOM     14  H17 UNL     1      24.869  36.926  14.992  0.00  0.00    +0.210 HD
ENDBRANCH   3  13
BRANCH   2  15
ATOM     15  O9  UNL     1      24.147  35.354  12.587  0.00  0.00    -0.389 OA
ATOM     16  H18 UNL     1      23.875  36.274  12.458  0.00  0.00    +0.210 HD
ENDBRANCH   2  15
BRANCH   4  17
ATOM     17  O4  UNL     1      21.120  36.841  15.156  0.00  0.00    -0.455 OA
BRANCH  17  18
ATOM     18  C8  UNL     1      20.090  36.646  16.033  0.00  0.00    +0.332 C 
ATOM     19  O5  UNL     1      20.316  36.703  17.269  0.00  0.00    -0.246 OA
BRANCH  18  20
ATOM     20  C9  UNL     1      18.739  36.375  15.586  0.00  0.00    +0.092 C 
ATOM     21  C10 UNL     1      18.183  35.190  15.745  0.00  0.00    +0.015 C 
BRANCH  21  22
ATOM     22  C11 UNL     1      16.849  34.811  15.337  0.00  0.00    -0.021 A 
ATOM     23  C12 UNL     1      15.759  34.950  16.188  0.00  0.00    +0.057 A 
ATOM     24  C13 UNL     1      14.494  34.604  15.836  0.00  0.00    +0.159 A 
ATOM     25  C14 UNL     1      14.227  34.080  14.572  0.00  0.00    +0.158 A 
ATOM     26  C15 UNL     1      15.278  33.920  13.681  0.00  0.00    +0.050 A 
ATOM     27  C16 UNL     1      16.552  34.295  14.104  0.00  0.00    +0.012 A 
BRANCH  25  28
ATOM     28  O6  UNL     1      12.945  33.729  14.212  0.00  0.00    -0.503 OA
ATOM     29  H15 UNL     1      12.177  34.392  14.146  0.00  0.00    +0.292 HD
ENDBRANCH  25  28
BRANCH  24  30
ATOM     30  O7  UNL     1      13.453  34.767  16.732  0.00  0.00    -0.503 OA
ATOM     31  H16 UNL     1      13.345  34.263  17.605  0.00  0.00    +0.292 HD
ENDBRANCH  24  30
ENDBRANCH  21  22
ENDBRANCH  18  20
ENDBRANCH  17  18
ENDBRANCH   4  17
TORSDOF 11
ENDMDL
MODEL 7
REMARK VINA RESULT:      -6.8      6.134      8.844
REMARK  Name = temp_3d.pdb
REMARK  11 active torsions:
REMARK  status: ('A' for Active; 'I' for Inactive)
REMARK    1  A    between atoms: C2_2  and  O9_25
REMARK    2  A    between atoms: C3_3  and  O8_24
REMARK    3  A    between atoms: C4_4  and  O4_11
REMARK    4  A    between atoms: C6_6  and  C7_7
REMARK    5  A    between atoms: C6_6  and  O3_10
REMARK    6  A    between atoms: C7_7  and  O2_9
REMARK    7  A    between atoms: O4_11  and  C8_12
REMARK    8  A    between atoms: C8_12  and  C9_14
REMARK    9  A    between atoms: C10_15  and  C11_16
REMARK   10  A    between atoms: C13_18  and  O7_23
REMARK   11  A    between atoms: C14_19  and  O6_22
REMARK                            x       y       z     vdW  Elec       q    Type
REMARK                         _______ _______ _______ _____ _____    ______ ____
ROOT
ATOM      1  C1  UNL     1      28.203  32.584  13.715  0.00  0.00    +0.080 C 
ATOM      2  C2  UNL     1      27.906  34.012  14.101  0.00  0.00    +0.150 C 
ATOM      3  C3  UNL     1      26.425  34.255  14.309  0.00  0.00    +0.184 C 
ATOM      4  C4  UNL     1      25.723  33.853  13.060  0.00  0.00    +0.211 C 
ATOM      5  C5  UNL     1      25.968  32.373  12.783  0.00  0.00    +0.093 C 
ATOM      6  C6  UNL     1      27.459  32.283  12.439  0.00  0.00    +0.168 C 
ENDROOT
BRANCH   6   7
ATOM      7  C7  UNL     1      27.784  30.940  11.904  0.00  0.00    +0.337 C 
ATOM      8  O1  UNL     1      27.715  31.068  10.639  0.00  0.00    -0.248 OA
BRANCH   7   9
ATOM      9  O2  UNL     1      28.122  29.627  12.099  0.00  0.00    -0.479 OA
ATOM     10  H8  UNL     1      28.167  29.189  13.033  0.00  0.00    +0.295 HD
ENDBRANCH   7   9
ENDBRANCH   6   7
BRANCH   6  11
ATOM     11  O3  UNL     1      27.717  33.293  11.523  0.00  0.00    -0.377 OA
ATOM     12  H9  UNL     1      27.665  32.964  10.607  0.00  0.00    +0.211 HD
ENDBRANCH   6  11
BRANCH   3  13
ATOM     13  O8  UNL     1      26.259  35.618  14.523  0.00  0.00    -0.386 OA
ATOM     14  H17 UNL     1      26.615  35.891  15.407  0.00  0.00    +0.210 HD
ENDBRANCH   3  13
BRANCH   2  15
ATOM     15  O9  UNL     1      28.524  34.943  13.305  0.00  0.00    -0.389 OA
ATOM     16  H18 UNL     1      28.246  34.991  12.379  0.00  0.00    +0.210 HD
ENDBRANCH   2  15
BRANCH   4  17
ATOM     17  O4  UNL     1      24.371  34.163  12.963  0.00  0.00    -0.455 OA
BRANCH  17  18
ATOM     18  C8  UNL     1      23.382  33.893  13.867  0.00  0.00    +0.332 C 
ATOM     19  O5  UNL     1      23.571  34.157  15.082  0.00  0.00    -0.246 OA
BRANCH  18  20
ATOM     20  C9  UNL     1      22.116  33.311  13.471  0.00  0.00    +0.092 C 
ATOM     21  C10 UNL     1      21.151  34.044  12.952  0.00  0.00    +0.015 C 
BRANCH  21  22
ATOM     22  C11 UNL     1      19.854  33.569  12.525  0.00  0.00    -0.021 A 
ATOM     23  C12 UNL     1      19.718  32.625  11.515  0.00  0.00    +0.057 A 
ATOM     24  C13 UNL     1      18.515  32.158  11.091  0.00  0.00    +0.159 A 
ATOM     25  C14 UNL     1      17.333  32.619  11.666  0.00  0.00    +0.158 A 
ATOM     26  C15 UNL     1      17.408  33.563  12.680  0.00  0.00    +0.050 A 
ATOM     27  C16 UNL     1      18.673  34.000  13.069  0.00  0.00    +0.012 A 
BRANCH  25  28
ATOM     28  O6  UNL     1      16.112  32.148  11.240  0.00  0.00    -0.503 OA
ATOM     29  H15 UNL     1      15.227  32.605  11.448  0.00  0.00    +0.292 HD
ENDBRANCH  25  28
BRANCH  24  30
ATOM     30  O7  UNL     1      18.451  31.218  10.079  0.00  0.00    -0.503 OA
ATOM     31  H16 UNL     1      17.669  30.597   9.902  0.00  0.00    +0.292 HD
ENDBRANCH  24  30
ENDBRANCH  21  22
ENDBRANCH  18  20
ENDBRANCH  17  18
ENDBRANCH   4  17
TORSDOF 11
ENDMDL
MODEL 8
REMARK VINA RESULT:      -6.8      6.094      8.788
REMARK  Name = temp_3d.pdb
REMARK  11 active torsions:
REMARK  status: ('A' for Active; 'I' for Inactive)
REMARK    1  A    between atoms: C2_2  and  O9_25
REMARK    2  A    between atoms: C3_3  and  O8_24
REMARK    3  A    between atoms: C4_4  and  O4_11
REMARK    4  A    between atoms: C6_6  and  C7_7
REMARK    5  A    between atoms: C6_6  and  O3_10
REMARK    6  A    between atoms: C7_7  and  O2_9
REMARK    7  A    between atoms: O4_11  and  C8_12
REMARK    8  A    between atoms: C8_12  and  C9_14
REMARK    9  A    between atoms: C10_15  and  C11_16
REMARK   10  A    between atoms: C13_18  and  O7_23
REMARK   11  A    between atoms: C14_19  and  O6_22
REMARK                            x       y       z     vdW  Elec       q    Type
REMARK                         _______ _______ _______ _____ _____    ______ ____
ROOT
ATOM      1  C1  UNL     1      18.690  32.519  13.345  0.00  0.00    +0.080 C 
ATOM      2  C2  UNL     1      19.709  32.138  14.392  0.00  0.00    +0.150 C 
ATOM      3  C3  UNL     1      20.731  33.233  14.623  0.00  0.00    +0.184 C 
ATOM      4  C4  UNL     1      21.362  33.546  13.311  0.00  0.00    +0.211 C 
ATOM      5  C5  UNL     1      20.299  34.032  12.330  0.00  0.00    +0.093 C 
ATOM      6  C6  UNL     1      19.425  32.801  12.061  0.00  0.00    +0.168 C 
ENDROOT
BRANCH   6   7
ATOM      7  C7  UNL     1      18.502  33.062  10.931  0.00  0.00    +0.337 C 
ATOM      8  O1  UNL     1      18.465  31.969  10.280  0.00  0.00    -0.248 OA
BRANCH   7   9
ATOM      9  O2  UNL     1      17.668  33.902  10.242  0.00  0.00    -0.479 OA
ATOM     10  H8  UNL     1      16.647  33.763  10.186  0.00  0.00    +0.295 HD
ENDBRANCH   7   9
ENDBRANCH   6   7
BRANCH   6  11
ATOM     11  O3  UNL     1      20.292  31.749  11.801  0.00  0.00    -0.377 OA
ATOM     12  H9  UNL     1      20.063  31.297  10.968  0.00  0.00    +0.211 HD
ENDBRANCH   6  11
BRANCH   3  13
ATOM     13  O8  UNL     1      21.687  32.724  15.493  0.00  0.00    -0.386 OA
ATOM     14  H17 UNL     1      22.160  31.949  15.097  0.00  0.00    +0.210 HD
ENDBRANCH   3  13
BRANCH   2  15
ATOM     15  O9  UNL     1      20.250  30.890  14.212  0.00  0.00    -0.389 OA
ATOM     16  H18 UNL     1      20.969  30.806  13.568  0.00  0.00    +0.210 HD
ENDBRANCH   2  15
BRANCH   4  17
ATOM     17  O4  UNL     1      22.460  34.397  13.321  0.00  0.00    -0.455 OA
BRANCH  17  18
ATOM     18  C8  UNL     1      23.559  34.355  12.508  0.00  0.00    +0.332 C 
ATOM     19  O5  UNL     1      23.710  35.245  11.633  0.00  0.00    -0.246 OA
BRANCH  18  20
ATOM     20  C9  UNL     1      24.561  33.316  12.622  0.00  0.00    +0.092 C 
ATOM     21  C10 UNL     1      25.761  33.452  12.093  0.00  0.00    +0.015 C 
BRANCH  21  22
ATOM     22  C11 UNL     1      26.833  32.482  12.145  0.00  0.00    -0.021 A 
ATOM     23  C12 UNL     1      27.629  32.335  13.274  0.00  0.00    +0.057 A 
ATOM     24  C13 UNL     1      28.643  31.434  13.355  0.00  0.00    +0.159 A 
ATOM     25  C14 UNL     1      28.935  30.597  12.281  0.00  0.00    +0.158 A 
ATOM     26  C15 UNL     1      28.172  30.700  11.128  0.00  0.00    +0.050 A 
ATOM     27  C16 UNL     1      27.147  31.644  11.109  0.00  0.00    +0.012 A 
BRANCH  25  28
ATOM     28  O6  UNL     1      29.961  29.683  12.360  0.00  0.00    -0.503 OA
ATOM     29  H15 UNL     1      30.390  29.244  11.549  0.00  0.00    +0.292 HD
ENDBRANCH  25  28
BRANCH  24  30
ATOM     30  O7  UNL     1      29.398  31.340  14.510  0.00  0.00    -0.503 OA
ATOM     31  H16 UNL     1      30.377  31.592  14.595  0.00  0.00    +0.292 HD
ENDBRANCH  24  30
ENDBRANCH  21  22
ENDBRANCH  18  20
ENDBRANCH  17  18
ENDBRANCH   4  17
TORSDOF 11
ENDMDL
MODEL 9
REMARK VINA RESULT:      -6.6      4.816      7.616
REMARK  Name = temp_3d.pdb
REMARK  11 active torsions:
REMARK  status: ('A' for Active; 'I' for Inactive)
REMARK    1  A    between atoms: C2_2  and  O9_25
REMARK    2  A    between atoms: C3_3  and  O8_24
REMARK    3  A    between atoms: C4_4  and  O4_11
REMARK    4  A    between atoms: C6_6  and  C7_7
REMARK    5  A    between atoms: C6_6  and  O3_10
REMARK    6  A    between atoms: C7_7  and  O2_9
REMARK    7  A    between atoms: O4_11  and  C8_12
REMARK    8  A    between atoms: C8_12  and  C9_14
REMARK    9  A    between atoms: C10_15  and  C11_16
REMARK   10  A    between atoms: C13_18  and  O7_23
REMARK   11  A    between atoms: C14_19  and  O6_22
REMARK                            x       y       z     vdW  Elec       q    Type
REMARK                         _______ _______ _______ _____ _____    ______ ____
ROOT
ATOM      1  C1  UNL     1      26.297  33.056  13.975  0.00  0.00    +0.080 C 
ATOM      2  C2  UNL     1      26.771  34.443  14.337  0.00  0.00    +0.150 C 
ATOM      3  C3  UNL     1      25.658  35.301  14.902  0.00  0.00    +0.184 C 
ATOM      4  C4  UNL     1      24.556  35.327  13.901  0.00  0.00    +0.211 C 
ATOM      5  C5  UNL     1      24.043  33.910  13.661  0.00  0.00    +0.093 C 
ATOM      6  C6  UNL     1      25.198  33.193  12.953  0.00  0.00    +0.168 C 
ENDROOT
BRANCH   6   7
ATOM      7  C7  UNL     1      24.748  31.879  12.435  0.00  0.00    +0.337 C 
ATOM      8  O1  UNL     1      23.517  32.045  12.152  0.00  0.00    -0.248 OA
BRANCH   7   9
ATOM      9  O2  UNL     1      25.003  30.573  12.110  0.00  0.00    -0.479 OA
ATOM     10  H8  UNL     1      25.004  30.222  11.140  0.00  0.00    +0.295 HD
ENDBRANCH   7   9
ENDBRANCH   6   7
BRANCH   6  11
ATOM     11  O3  UNL     1      25.630  34.039  11.942  0.00  0.00    -0.377 OA
ATOM     12  H9  UNL     1      24.969  34.729  11.748  0.00  0.00    +0.211 HD
ENDBRANCH   6  11
BRANCH   3  13
ATOM     13  O8  UNL     1      26.171  36.581  15.067  0.00  0.00    -0.386 OA
ATOM     14  H17 UNL     1      26.663  36.665  15.923  0.00  0.00    +0.210 HD
ENDBRANCH   3  13
BRANCH   2  15
ATOM     15  O9  UNL     1      27.509  35.052  13.353  0.00  0.00    -0.389 OA
ATOM     16  H18 UNL     1      28.215  34.533  12.941  0.00  0.00    +0.210 HD
ENDBRANCH   2  15
BRANCH   4  17
ATOM     17  O4  UNL     1      23.506  36.207  14.134  0.00  0.00    -0.455 OA
BRANCH  17  18
ATOM     18  C8  UNL     1      22.514  36.099  15.069  0.00  0.00    +0.332 C 
ATOM     19  O5  UNL     1      22.813  36.140  16.290  0.00  0.00    -0.246 OA
BRANCH  18  20
ATOM     20  C9  UNL     1      21.123  35.939  14.700  0.00  0.00    +0.092 C 
ATOM     21  C10 UNL     1      20.610  34.754  14.432  0.00  0.00    +0.015 C 
BRANCH  21  22
ATOM     22  C11 UNL     1      19.242  34.480  14.054  0.00  0.00    -0.021 A 
ATOM     23  C12 UNL     1      18.170  34.939  14.810  0.00  0.00    +0.057 A 
ATOM     24  C13 UNL     1      16.874  34.700  14.483  0.00  0.00    +0.159 A 
ATOM     25  C14 UNL     1      16.554  33.964  13.344  0.00  0.00    +0.158 A 
ATOM     26  C15 UNL     1      17.585  33.481  12.551  0.00  0.00    +0.050 A 
ATOM     27  C16 UNL     1      18.892  33.761  12.943  0.00  0.00    +0.012 A 
BRANCH  25  28
ATOM     28  O6  UNL     1      15.241  33.720  13.009  0.00  0.00    -0.503 OA
ATOM     29  H15 UNL     1      14.594  33.210  13.604  0.00  0.00    +0.292 HD
ENDBRANCH  25  28
BRANCH  24  30
ATOM     30  O7  UNL     1      15.854  35.187  15.280  0.00  0.00    -0.503 OA
ATOM     31  H16 UNL     1      15.394  36.083  15.165  0.00  0.00    +0.292 HD
ENDBRANCH  24  30
ENDBRANCH  21  22
ENDBRANCH  18  20
ENDBRANCH  17  18
ENDBRANCH   4  17
TORSDOF 11
ENDMDL
