MODEL 1
REMARK VINA RESULT:     -12.9      0.000      0.000
REMARK  Name = temp_3d.pdb
REMARK  8 active torsions:
REMARK  status: ('A' for Active; 'I' for Inactive)
REMARK    1  A    between atoms: C1_1  and  C2_2
REMARK    2  A    between atoms: C6_7  and  O8_38
REMARK    3  A    between atoms: C8_9  and  O7_37
REMARK    4  A    between atoms: C10_11  and  O6_36
REMARK    5  A    between atoms: C17_18  and  C30_35
REMARK    6  A    between atoms: C21_23  and  O5_34
REMARK    7  A    between atoms: C23_25  and  O4_33
REMARK    8  A    between atoms: C25_27  and  O3_32
REMARK                            x       y       z     vdW  Elec       q    Type
REMARK                         _______ _______ _______ _____ _____    ______ ____
ROOT
ATOM      1  C1  UNL     1      18.515  32.295  11.515  0.00  0.00    +0.044 C 
ATOM      2  C2  UNL     1      19.115  33.546  12.167  0.00  0.00    -0.038 C 
ATOM      3  C3  UNL     1      20.447  33.576  11.791  0.00  0.00    +0.055 C 
ATOM      4  C4  UNL     1      21.261  34.261  12.743  0.00  0.00    +0.190 C 
ATOM      5  O1  UNL     1      22.488  34.303  12.398  0.00  0.00    -0.287 OA
ATOM      6  C5  UNL     1      20.755  34.815  13.907  0.00  0.00    +0.072 A 
ATOM      7  C6  UNL     1      21.652  35.396  14.748  0.00  0.00    +0.139 A 
ATOM      8  C7  UNL     1      21.100  35.898  15.932  0.00  0.00    +0.067 A 
ATOM      9  C8  UNL     1      21.959  36.507  16.853  0.00  0.00    +0.132 A 
ATOM     10  C9  UNL     1      21.504  37.021  18.048  0.00  0.00    +0.092 A 
ATOM     11  C10 UNL     1      20.155  36.917  18.319  0.00  0.00    +0.129 A 
ATOM     12  C11 UNL     1      19.270  36.336  17.467  0.00  0.00    +0.036 A 
ATOM     13  C12 UNL     1      19.747  35.834  16.285  0.00  0.00    +0.009 A 
ATOM     14  C13 UNL     1      18.932  35.210  15.330  0.00  0.00    +0.000 A 
ATOM     15  C14 UNL     1      19.421  34.694  14.114  0.00  0.00    +0.006 A 
ATOM     16  C15 UNL     1      18.511  34.075  13.260  0.00  0.00    -0.005 A 
ATOM     17  C16 UNL     1      17.218  33.988  13.530  0.00  0.00    -0.005 A 
ATOM     18  C17 UNL     1      16.278  33.481  12.696  0.00  0.00    -0.038 C 
ATOM     19  C18 UNL     1      14.915  33.344  12.892  0.00  0.00    +0.055 C 
ATOM     20  C19 UNL     1      14.493  33.843  14.162  0.00  0.00    +0.190 C 
ATOM     21  O2  UNL     1      13.243  33.708  14.348  0.00  0.00    -0.287 OA
ATOM     22  C20 UNL     1      15.377  34.408  15.077  0.00  0.00    +0.072 A 
ATOM     23  C21 UNL     1      14.829  34.884  16.227  0.00  0.00    +0.139 A 
ATOM     24  C22 UNL     1      15.743  35.485  17.097  0.00  0.00    +0.067 A 
ATOM     25  C23 UNL     1      15.273  36.006  18.297  0.00  0.00    +0.132 A 
ATOM     26  C24 UNL     1      16.097  36.623  19.211  0.00  0.00    +0.092 A 
ATOM     27  C25 UNL     1      17.439  36.715  18.901  0.00  0.00    +0.129 A 
ATOM     28  C26 UNL     1      17.965  36.228  17.748  0.00  0.00    +0.036 A 
ATOM     29  C27 UNL     1      17.115  35.621  16.863  0.00  0.00    +0.009 A 
ATOM     30  C28 UNL     1      17.562  35.090  15.642  0.00  0.00    +0.000 A 
ATOM     31  C29 UNL     1      16.693  34.462  14.727  0.00  0.00    +0.006 A 
ATOM     32  C30 UNL     1      16.499  33.572  11.186  0.00  0.00    +0.044 C 
ENDROOT
BRANCH  27  33
ATOM     33  O3  UNL     1      18.066  37.351  19.921  0.00  0.00    -0.506 OA
ATOM     34  H8  UNL     1      17.692  37.821  20.717  0.00  0.00    +0.292 HD
ENDBRANCH  27  33
BRANCH  25  35
ATOM     35  O4  UNL     1      13.910  35.892  18.571  0.00  0.00    -0.506 OA
ATOM     36  H9  UNL     1      13.239  36.150  17.894  0.00  0.00    +0.292 HD
ENDBRANCH  25  35
BRANCH  23  37
ATOM     37  O5  UNL     1      13.557  34.854  16.628  0.00  0.00    -0.505 OA
ATOM     38  H10 UNL     1      12.684  34.796  16.207  0.00  0.00    +0.292 HD
ENDBRANCH  23  37
BRANCH  11  39
ATOM     39  O6  UNL     1      19.914  37.474  19.528  0.00  0.00    -0.506 OA
ATOM     40  H14 UNL     1      19.722  38.421  19.763  0.00  0.00    +0.292 HD
ENDBRANCH  11  39
BRANCH   9  41
ATOM     41  O7  UNL     1      23.307  36.588  16.535  0.00  0.00    -0.506 OA
ATOM     42  H15 UNL     1      24.002  36.437  17.249  0.00  0.00    +0.292 HD
ENDBRANCH   9  41
BRANCH   7  43
ATOM     43  O8  UNL     1      22.969  35.547  14.588  0.00  0.00    -0.505 OA
ATOM     44  H16 UNL     1      23.721  35.824  15.118  0.00  0.00    +0.292 HD
ENDBRANCH   7  43
TORSDOF 6
ENDMDL
MODEL 2
REMARK VINA RESULT:     -11.8      1.267      6.997
REMARK  Name = temp_3d.pdb
REMARK  8 active torsions:
REMARK  status: ('A' for Active; 'I' for Inactive)
REMARK    1  A    between atoms: C1_1  and  C2_2
REMARK    2  A    between atoms: C6_7  and  O8_38
REMARK    3  A    between atoms: C8_9  and  O7_37
REMARK    4  A    between atoms: C10_11  and  O6_36
REMARK    5  A    between atoms: C17_18  and  C30_35
REMARK    6  A    between atoms: C21_23  and  O5_34
REMARK    7  A    between atoms: C23_25  and  O4_33
REMARK    8  A    between atoms: C25_27  and  O3_32
REMARK                            x       y       z     vdW  Elec       q    Type
REMARK                         _______ _______ _______ _____ _____    ______ ____
ROOT
ATOM      1  C1  UNL     1      22.139  36.005  18.236  0.00  0.00    +0.044 C 
ATOM      2  C2  UNL     1      20.729  36.435  17.815  0.00  0.00    -0.038 C 
ATOM      3  C3  UNL     1      20.132  36.958  18.949  0.00  0.00    +0.055 C 
ATOM      4  C4  UNL     1      18.709  36.835  18.915  0.00  0.00    +0.190 C 
ATOM      5  O1  UNL     1      18.150  37.324  19.950  0.00  0.00    -0.287 OA
ATOM      6  C5  UNL     1      18.030  36.246  17.861  0.00  0.00    +0.072 A 
ATOM      7  C6  UNL     1      16.678  36.152  17.982  0.00  0.00    +0.139 A 
ATOM      8  C7  UNL     1      16.042  35.507  16.916  0.00  0.00    +0.067 A 
ATOM      9  C8  UNL     1      14.651  35.365  16.967  0.00  0.00    +0.132 A 
ATOM     10  C9  UNL     1      13.943  34.736  15.966  0.00  0.00    +0.092 A 
ATOM     11  C10 UNL     1      14.652  34.240  14.892  0.00  0.00    +0.129 A 
ATOM     12  C11 UNL     1      16.003  34.345  14.783  0.00  0.00    +0.036 A 
ATOM     13  C12 UNL     1      16.684  34.976  15.791  0.00  0.00    +0.009 A 
ATOM     14  C13 UNL     1      18.076  35.141  15.792  0.00  0.00    +0.000 A 
ATOM     15  C14 UNL     1      18.777  35.789  16.827  0.00  0.00    +0.006 A 
ATOM     16  C15 UNL     1      20.165  35.866  16.720  0.00  0.00    -0.005 A 
ATOM     17  C16 UNL     1      20.832  35.393  15.681  0.00  0.00    -0.005 A 
ATOM     18  C17 UNL     1      22.167  35.523  15.483  0.00  0.00    -0.038 C 
ATOM     19  C18 UNL     1      22.947  35.058  14.440  0.00  0.00    +0.055 C 
ATOM     20  C19 UNL     1      22.182  34.369  13.449  0.00  0.00    +0.190 C 
ATOM     21  O2  UNL     1      22.899  33.933  12.495  0.00  0.00    -0.287 OA
ATOM     22  C20 UNL     1      20.803  34.208  13.547  0.00  0.00    +0.072 A 
ATOM     23  C21 UNL     1      20.198  33.572  12.508  0.00  0.00    +0.139 A 
ATOM     24  C22 UNL     1      18.808  33.472  12.622  0.00  0.00    +0.067 A 
ATOM     25  C23 UNL     1      18.102  32.842  11.605  0.00  0.00    +0.132 A 
ATOM     26  C24 UNL     1      16.732  32.705  11.627  0.00  0.00    +0.092 A 
ATOM     27  C25 UNL     1      16.056  33.220  12.714  0.00  0.00    +0.129 A 
ATOM     28  C26 UNL     1      16.682  33.847  13.742  0.00  0.00    +0.036 A 
ATOM     29  C27 UNL     1      18.046  33.965  13.686  0.00  0.00    +0.009 A 
ATOM     30  C28 UNL     1      18.783  34.601  14.698  0.00  0.00    +0.000 A 
ATOM     31  C29 UNL     1      20.186  34.725  14.647  0.00  0.00    +0.006 A 
ATOM     32  C30 UNL     1      22.888  36.738  16.067  0.00  0.00    +0.044 C 
ENDROOT
BRANCH  27  33
ATOM     33  O3  UNL     1      14.733  32.983  12.540  0.00  0.00    -0.506 OA
ATOM     34  H8  UNL     1      13.995  33.599  12.278  0.00  0.00    +0.292 HD
ENDBRANCH  27  33
BRANCH  25  35
ATOM     35  O4  UNL     1      18.824  32.335  10.524  0.00  0.00    -0.506 OA
ATOM     36  H9  UNL     1      18.469  31.581   9.992  0.00  0.00    +0.292 HD
ENDBRANCH  25  35
BRANCH  23  37
ATOM     37  O5  UNL     1      20.744  33.041  11.413  0.00  0.00    -0.505 OA
ATOM     38  H10 UNL     1      20.554  33.032  10.461  0.00  0.00    +0.292 HD
ENDBRANCH  23  37
BRANCH  11  39
ATOM     39  O6  UNL     1      13.783  33.666  14.029  0.00  0.00    -0.506 OA
ATOM     40  H14 UNL     1      13.442  32.732  14.001  0.00  0.00    +0.292 HD
ENDBRANCH  11  39
BRANCH   9  41
ATOM     41  O7  UNL     1      13.982  35.881  18.068  0.00  0.00    -0.506 OA
ATOM     42  H15 UNL     1      13.027  36.190  17.976  0.00  0.00    +0.292 HD
ENDBRANCH   9  41
BRANCH   7  43
ATOM     43  O8  UNL     1      15.897  36.591  18.971  0.00  0.00    -0.505 OA
ATOM     44  H16 UNL     1      15.460  37.409  19.221  0.00  0.00    +0.292 HD
ENDBRANCH   7  43
TORSDOF 6
ENDMDL
