MODEL 1
REMARK VINA RESULT:      -8.4      0.000      0.000
REMARK  Name = temp_3d.pdb
REMARK  5 active torsions:
REMARK  status: ('A' for Active; 'I' for Inactive)
REMARK    1  A    between atoms: C3_3  and  O6_21
REMARK    2  A    between atoms: C6_6  and  C7_7
REMARK    3  A    between atoms: C8_8  and  O5_20
REMARK    4  A    between atoms: C11_12  and  O4_19
REMARK    5  A    between atoms: C13_14  and  O3_18
REMARK                            x       y       z     vdW  Elec       q    Type
REMARK                         _______ _______ _______ _____ _____    ______ ____
ROOT
ATOM      1  C7  UNL     1      16.361  34.246  13.797  0.00  0.00    +0.181 A 
ATOM      2  C8  UNL     1      15.086  34.132  14.298  0.00  0.00    +0.208 A 
ATOM      3  C9  UNL     1      14.696  34.568  15.532  0.00  0.00    +0.238 A 
ATOM      4  O1  UNL     1      13.503  34.405  15.871  0.00  0.00    -0.283 OA
ATOM      5  C10 UNL     1      15.638  35.162  16.333  0.00  0.00    +0.109 A 
ATOM      6  C11 UNL     1      15.207  35.585  17.563  0.00  0.00    +0.135 A 
ATOM      7  C12 UNL     1      16.196  36.184  18.347  0.00  0.00    +0.091 A 
ATOM      8  C13 UNL     1      17.504  36.316  17.867  0.00  0.00    +0.124 A 
ATOM      9  C14 UNL     1      17.862  35.857  16.599  0.00  0.00    +0.092 A 
ATOM     10  C15 UNL     1      16.901  35.266  15.816  0.00  0.00    +0.147 A 
ATOM     11  O2  UNL     1      17.194  34.825  14.628  0.00  0.00    -0.451 OA
ENDROOT
BRANCH   1  17
ATOM     12  C1  UNL     1      16.638  34.345  11.270  0.00  0.00    +0.015 A 
ATOM     13  C2  UNL     1      17.152  33.915  10.071  0.00  0.00    +0.046 A 
ATOM     14  C3  UNL     1      18.013  32.838  10.100  0.00  0.00    +0.117 A 
ATOM     15  C4  UNL     1      18.313  32.253  11.311  0.00  0.00    +0.046 A 
ATOM     16  C5  UNL     1      17.749  32.752  12.461  0.00  0.00    +0.015 A 
ATOM     17  C6  UNL     1      16.882  33.823  12.513  0.00  0.00    +0.021 A 
BRANCH  14  18
ATOM     18  O6  UNL     1      18.571  32.351   8.926  0.00  0.00    -0.507 OA
ATOM     19  H10 UNL     1      18.225  32.720   8.046  0.00  0.00    +0.292 HD
ENDBRANCH  14  18
ENDBRANCH   1  17
BRANCH   8  20
ATOM     20  O3  UNL     1      18.520  36.904  18.612  0.00  0.00    -0.507 OA
ATOM     21  H7  UNL     1      18.815  37.856  18.406  0.00  0.00    +0.292 HD
ENDBRANCH   8  20
BRANCH   6  22
ATOM     22  O4  UNL     1      14.015  35.543  18.180  0.00  0.00    -0.506 OA
ATOM     23  H8  UNL     1      13.134  35.754  17.827  0.00  0.00    +0.292 HD
ENDBRANCH   6  22
BRANCH   2  24
ATOM     24  O5  UNL     1      14.153  33.531  13.476  0.00  0.00    -0.501 OA
ATOM     25  H9  UNL     1      13.275  33.982  13.289  0.00  0.00    +0.292 HD
ENDBRANCH   2  24
TORSDOF 5
ENDMDL
MODEL 2
REMARK VINA RESULT:      -8.3      1.712      7.089
REMARK  Name = temp_3d.pdb
REMARK  5 active torsions:
REMARK  status: ('A' for Active; 'I' for Inactive)
REMARK    1  A    between atoms: C3_3  and  O6_21
REMARK    2  A    between atoms: C6_6  and  C7_7
REMARK    3  A    between atoms: C8_8  and  O5_20
REMARK    4  A    between atoms: C11_12  and  O4_19
REMARK    5  A    between atoms: C13_14  and  O3_18
REMARK                            x       y       z     vdW  Elec       q    Type
REMARK                         _______ _______ _______ _____ _____    ______ ____
ROOT
ATOM      1  C7  UNL     1      17.391  34.060  13.518  0.00  0.00    +0.181 A 
ATOM      2  C8  UNL     1      18.213  33.024  13.146  0.00  0.00    +0.208 A 
ATOM      3  C9  UNL     1      18.368  32.578  11.864  0.00  0.00    +0.238 A 
ATOM      4  O1  UNL     1      19.148  31.624  11.656  0.00  0.00    -0.283 OA
ATOM      5  C10 UNL     1      17.656  33.206  10.874  0.00  0.00    +0.109 A 
ATOM      6  C11 UNL     1      17.839  32.730   9.602  0.00  0.00    +0.135 A 
ATOM      7  C12 UNL     1      17.097  33.396   8.624  0.00  0.00    +0.091 A 
ATOM      8  C13 UNL     1      16.250  34.456   8.968  0.00  0.00    +0.124 A 
ATOM      9  C14 UNL     1      16.121  34.880  10.291  0.00  0.00    +0.092 A 
ATOM     10  C15 UNL     1      16.844  34.235  11.264  0.00  0.00    +0.147 A 
ATOM     11  O2  UNL     1      16.751  34.601  12.509  0.00  0.00    -0.451 OA
ENDROOT
BRANCH   1  17
ATOM     12  C1  UNL     1      17.925  35.480  15.561  0.00  0.00    +0.015 A 
ATOM     13  C2  UNL     1      17.665  35.982  16.812  0.00  0.00    +0.046 A 
ATOM     14  C3  UNL     1      16.497  35.581  17.426  0.00  0.00    +0.117 A 
ATOM     15  C4  UNL     1      15.660  34.707  16.766  0.00  0.00    +0.046 A 
ATOM     16  C5  UNL     1      16.004  34.256  15.514  0.00  0.00    +0.015 A 
ATOM     17  C6  UNL     1      17.151  34.611  14.836  0.00  0.00    +0.021 A 
BRANCH  14  18
ATOM     18  O6  UNL     1      16.169  36.049  18.691  0.00  0.00    -0.507 OA
ATOM     19  H10 UNL     1      16.052  37.050  18.811  0.00  0.00    +0.292 HD
ENDBRANCH  14  18
ENDBRANCH   1  17
BRANCH   8  20
ATOM     20  O3  UNL     1      15.493  35.146   8.029  0.00  0.00    -0.507 OA
ATOM     21  H7  UNL     1      15.892  35.371   7.121  0.00  0.00    +0.292 HD
ENDBRANCH   8  20
BRANCH   6  22
ATOM     22  O4  UNL     1      18.594  31.743   9.094  0.00  0.00    -0.506 OA
ATOM     23  H8  UNL     1      18.508  30.781   9.212  0.00  0.00    +0.292 HD
ENDBRANCH   6  22
BRANCH   2  24
ATOM     24  O5  UNL     1      18.921  32.405  14.158  0.00  0.00    -0.501 OA
ATOM     25  H9  UNL     1      19.215  31.449  14.062  0.00  0.00    +0.292 HD
ENDBRANCH   2  24
TORSDOF 5
ENDMDL
MODEL 3
REMARK VINA RESULT:      -7.8      1.730      3.621
REMARK  Name = temp_3d.pdb
REMARK  5 active torsions:
REMARK  status: ('A' for Active; 'I' for Inactive)
REMARK    1  A    between atoms: C3_3  and  O6_21
REMARK    2  A    between atoms: C6_6  and  C7_7
REMARK    3  A    between atoms: C8_8  and  O5_20
REMARK    4  A    between atoms: C11_12  and  O4_19
REMARK    5  A    between atoms: C13_14  and  O3_18
REMARK                            x       y       z     vdW  Elec       q    Type
REMARK                         _______ _______ _______ _____ _____    ______ ____
ROOT
ATOM      1  C7  UNL     1      17.421  33.705  12.027  0.00  0.00    +0.181 A 
ATOM      2  C8  UNL     1      18.526  34.068  12.760  0.00  0.00    +0.208 A 
ATOM      3  C9  UNL     1      18.493  34.476  14.063  0.00  0.00    +0.238 A 
ATOM      4  O1  UNL     1      19.571  34.780  14.618  0.00  0.00    -0.283 OA
ATOM      5  C10 UNL     1      17.274  34.528  14.690  0.00  0.00    +0.109 A 
ATOM      6  C11 UNL     1      17.282  34.942  15.997  0.00  0.00    +0.135 A 
ATOM      7  C12 UNL     1      16.023  34.981  16.599  0.00  0.00    +0.091 A 
ATOM      8  C13 UNL     1      14.877  34.618  15.881  0.00  0.00    +0.124 A 
ATOM      9  C14 UNL     1      14.955  34.206  14.550  0.00  0.00    +0.092 A 
ATOM     10  C15 UNL     1      16.187  34.162  13.944  0.00  0.00    +0.147 A 
ATOM     11  O2  UNL     1      16.301  33.784  12.705  0.00  0.00    -0.451 OA
ENDROOT
BRANCH   1  17
ATOM     12  C1  UNL     1      17.961  32.196  10.051  0.00  0.00    +0.015 A 
ATOM     13  C2  UNL     1      17.860  31.804   8.738  0.00  0.00    +0.046 A 
ATOM     14  C3  UNL     1      17.047  32.553   7.914  0.00  0.00    +0.117 A 
ATOM     15  C4  UNL     1      16.384  33.643   8.437  0.00  0.00    +0.046 A 
ATOM     16  C5  UNL     1      16.547  33.960   9.765  0.00  0.00    +0.015 A 
ATOM     17  C6  UNL     1      17.341  33.261  10.650  0.00  0.00    +0.021 A 
BRANCH  14  18
ATOM     18  O6  UNL     1      16.897  32.215   6.576  0.00  0.00    -0.507 OA
ATOM     19  H10 UNL     1      17.379  32.782   5.886  0.00  0.00    +0.292 HD
ENDBRANCH  14  18
ENDBRANCH   1  17
BRANCH   8  20
ATOM     20  O3  UNL     1      13.605  34.642  16.439  0.00  0.00    -0.507 OA
ATOM     21  H7  UNL     1      12.853  34.106  16.013  0.00  0.00    +0.292 HD
ENDBRANCH   8  20
BRANCH   6  22
ATOM     22  O4  UNL     1      18.264  35.322  16.830  0.00  0.00    -0.506 OA
ATOM     23  H8  UNL     1      18.799  34.781  17.436  0.00  0.00    +0.292 HD
ENDBRANCH   6  22
BRANCH   2  24
ATOM     24  O5  UNL     1      19.743  34.008  12.110  0.00  0.00    -0.501 OA
ATOM     25  H9  UNL     1      20.582  33.798  12.620  0.00  0.00    +0.292 HD
ENDBRANCH   2  24
TORSDOF 5
ENDMDL
MODEL 4
REMARK VINA RESULT:      -7.8      1.619      6.500
REMARK  Name = temp_3d.pdb
REMARK  5 active torsions:
REMARK  status: ('A' for Active; 'I' for Inactive)
REMARK    1  A    between atoms: C3_3  and  O6_21
REMARK    2  A    between atoms: C6_6  and  C7_7
REMARK    3  A    between atoms: C8_8  and  O5_20
REMARK    4  A    between atoms: C11_12  and  O4_19
REMARK    5  A    between atoms: C13_14  and  O3_18
REMARK                            x       y       z     vdW  Elec       q    Type
REMARK                         _______ _______ _______ _____ _____    ______ ____
ROOT
ATOM      1  C7  UNL     1      16.556  35.268  17.051  0.00  0.00    +0.181 A 
ATOM      2  C8  UNL     1      15.207  35.038  16.924  0.00  0.00    +0.208 A 
ATOM      3  C9  UNL     1      14.605  34.555  15.798  0.00  0.00    +0.238 A 
ATOM      4  O1  UNL     1      13.365  34.389  15.811  0.00  0.00    -0.283 OA
ATOM      5  C10 UNL     1      15.397  34.277  14.714  0.00  0.00    +0.109 A 
ATOM      6  C11 UNL     1      14.755  33.794  13.603  0.00  0.00    +0.135 A 
ATOM      7  C12 UNL     1      15.596  33.523  12.521  0.00  0.00    +0.091 A 
ATOM      8  C13 UNL     1      16.974  33.746  12.616  0.00  0.00    +0.124 A 
ATOM      9  C14 UNL     1      17.550  34.241  13.786  0.00  0.00    +0.092 A 
ATOM     10  C15 UNL     1      16.736  34.512  14.859  0.00  0.00    +0.147 A 
ATOM     11  O2  UNL     1      17.235  34.975  15.968  0.00  0.00    -0.451 OA
ENDROOT
BRANCH   1  17
ATOM     12  C1  UNL     1      17.375  37.058  18.663  0.00  0.00    +0.015 A 
ATOM     13  C2  UNL     1      18.091  37.502  19.748  0.00  0.00    +0.046 A 
ATOM     14  C3  UNL     1      18.819  36.567  20.453  0.00  0.00    +0.117 A 
ATOM     15  C4  UNL     1      18.796  35.252  20.043  0.00  0.00    +0.046 A 
ATOM     16  C5  UNL     1      18.050  34.900  18.942  0.00  0.00    +0.015 A 
ATOM     17  C6  UNL     1      17.297  35.775  18.188  0.00  0.00    +0.021 A 
BRANCH  14  18
ATOM     18  O6  UNL     1      19.565  36.945  21.561  0.00  0.00    -0.507 OA
ATOM     19  H10 UNL     1      20.555  36.721  21.566  0.00  0.00    +0.292 HD
ENDBRANCH  14  18
ENDBRANCH   1  17
BRANCH   8  20
ATOM     20  O3  UNL     1      17.848  33.492  11.566  0.00  0.00    -0.507 OA
ATOM     21  H7  UNL     1      18.835  33.333  11.753  0.00  0.00    +0.292 HD
ENDBRANCH   8  20
BRANCH   6  22
ATOM     22  O4  UNL     1      13.467  33.522  13.336  0.00  0.00    -0.506 OA
ATOM     23  H8  UNL     1      13.086  33.022  12.593  0.00  0.00    +0.292 HD
ENDBRANCH   6  22
BRANCH   2  24
ATOM     24  O5  UNL     1      14.428  35.325  18.028  0.00  0.00    -0.501 OA
ATOM     25  H9  UNL     1      14.851  35.654  18.878  0.00  0.00    +0.292 HD
ENDBRANCH   2  24
TORSDOF 5
ENDMDL
MODEL 5
REMARK VINA RESULT:      -7.7      1.321      3.317
REMARK  Name = temp_3d.pdb
REMARK  5 active torsions:
REMARK  status: ('A' for Active; 'I' for Inactive)
REMARK    1  A    between atoms: C3_3  and  O6_21
REMARK    2  A    between atoms: C6_6  and  C7_7
REMARK    3  A    between atoms: C8_8  and  O5_20
REMARK    4  A    between atoms: C11_12  and  O4_19
REMARK    5  A    between atoms: C13_14  and  O3_18
REMARK                            x       y       z     vdW  Elec       q    Type
REMARK                         _______ _______ _______ _____ _____    ______ ____
ROOT
ATOM      1  C7  UNL     1      18.300  34.475  14.164  0.00  0.00    +0.181 A 
ATOM      2  C8  UNL     1      19.259  35.187  14.844  0.00  0.00    +0.208 A 
ATOM      3  C9  UNL     1      19.056  35.819  16.037  0.00  0.00    +0.238 A 
ATOM      4  O1  UNL     1      20.013  36.435  16.555  0.00  0.00    -0.283 OA
ATOM      5  C10 UNL     1      17.808  35.742  16.602  0.00  0.00    +0.109 A 
ATOM      6  C11 UNL     1      17.644  36.389  17.799  0.00  0.00    +0.135 A 
ATOM      7  C12 UNL     1      16.361  36.287  18.341  0.00  0.00    +0.091 A 
ATOM      8  C13 UNL     1      15.360  35.570  17.674  0.00  0.00    +0.124 A 
ATOM      9  C14 UNL     1      15.610  34.937  16.456  0.00  0.00    +0.092 A 
ATOM     10  C15 UNL     1      16.867  35.029  15.911  0.00  0.00    +0.147 A 
ATOM     11  O2  UNL     1      17.140  34.454  14.776  0.00  0.00    -0.451 OA
ENDROOT
BRANCH   1  17
ATOM     12  C1  UNL     1      19.193  32.699  12.576  0.00  0.00    +0.015 A 
ATOM     13  C2  UNL     1      19.265  32.056  11.365  0.00  0.00    +0.046 A 
ATOM     14  C3  UNL     1      18.460  32.525  10.349  0.00  0.00    +0.117 A 
ATOM     15  C4  UNL     1      17.633  33.600  10.592  0.00  0.00    +0.046 A 
ATOM     16  C5  UNL     1      17.629  34.182  11.838  0.00  0.00    +0.015 A 
ATOM     17  C6  UNL     1      18.404  33.771  12.902  0.00  0.00    +0.021 A 
BRANCH  14  18
ATOM     18  O6  UNL     1      18.480  31.922   9.099  0.00  0.00    -0.507 OA
ATOM     19  H10 UNL     1      17.702  31.320   8.849  0.00  0.00    +0.292 HD
ENDBRANCH  14  18
ENDBRANCH   1  17
BRANCH   8  20
ATOM     20  O3  UNL     1      14.070  35.442  18.175  0.00  0.00    -0.507 OA
ATOM     21  H7  UNL     1      13.291  35.880  17.690  0.00  0.00    +0.292 HD
ENDBRANCH   8  20
BRANCH   6  22
ATOM     22  O4  UNL     1      18.473  37.111  18.570  0.00  0.00    -0.506 OA
ATOM     23  H8  UNL     1      19.434  37.018  18.694  0.00  0.00    +0.292 HD
ENDBRANCH   6  22
BRANCH   2  24
ATOM     24  O5  UNL     1      20.508  35.252  14.258  0.00  0.00    -0.501 OA
ATOM     25  H9  UNL     1      20.627  35.021  13.288  0.00  0.00    +0.292 HD
ENDBRANCH   2  24
TORSDOF 5
ENDMDL
MODEL 6
REMARK VINA RESULT:      -7.5      2.803      4.020
REMARK  Name = temp_3d.pdb
REMARK  5 active torsions:
REMARK  status: ('A' for Active; 'I' for Inactive)
REMARK    1  A    between atoms: C3_3  and  O6_21
REMARK    2  A    between atoms: C6_6  and  C7_7
REMARK    3  A    between atoms: C8_8  and  O5_20
REMARK    4  A    between atoms: C11_12  and  O4_19
REMARK    5  A    between atoms: C13_14  and  O3_18
REMARK                            x       y       z     vdW  Elec       q    Type
REMARK                         _______ _______ _______ _____ _____    ______ ____
ROOT
ATOM      1  C7  UNL     1      18.268  34.545  14.186  0.00  0.00    +0.181 A 
ATOM      2  C8  UNL     1      17.333  34.051  13.308  0.00  0.00    +0.208 A 
ATOM      3  C9  UNL     1      15.997  33.955  13.572  0.00  0.00    +0.238 A 
ATOM      4  O1  UNL     1      15.248  33.487  12.687  0.00  0.00    -0.283 OA
ATOM      5  C10 UNL     1      15.550  34.381  14.797  0.00  0.00    +0.109 A 
ATOM      6  C11 UNL     1      14.203  34.268  15.023  0.00  0.00    +0.135 A 
ATOM      7  C12 UNL     1      13.789  34.711  16.281  0.00  0.00    +0.091 A 
ATOM      8  C13 UNL     1      14.716  35.220  17.199  0.00  0.00    +0.124 A 
ATOM      9  C14 UNL     1      16.074  35.301  16.889  0.00  0.00    +0.092 A 
ATOM     10  C15 UNL     1      16.496  34.869  15.656  0.00  0.00    +0.147 A 
ATOM     11  O2  UNL     1      17.754  34.927  15.330  0.00  0.00    -0.451 OA
ENDROOT
BRANCH   1  17
ATOM     12  C1  UNL     1      20.547  33.978  13.206  0.00  0.00    +0.015 A 
ATOM     13  C2  UNL     1      21.904  34.146  13.069  0.00  0.00    +0.046 A 
ATOM     14  C3  UNL     1      22.499  35.139  13.817  0.00  0.00    +0.117 A 
ATOM     15  C4  UNL     1      21.717  35.905  14.656  0.00  0.00    +0.046 A 
ATOM     16  C5  UNL     1      20.366  35.663  14.729  0.00  0.00    +0.015 A 
ATOM     17  C6  UNL     1      19.699  34.691  14.013  0.00  0.00    +0.021 A 
BRANCH  14  18
ATOM     18  O6  UNL     1      23.865  35.366  13.728  0.00  0.00    -0.507 OA
ATOM     19  H10 UNL     1      24.195  36.008  13.015  0.00  0.00    +0.292 HD
ENDBRANCH  14  18
ENDBRANCH   1  17
BRANCH   8  20
ATOM     20  O3  UNL     1      14.349  35.672  18.461  0.00  0.00    -0.507 OA
ATOM     21  H7  UNL     1      14.556  35.109  19.282  0.00  0.00    +0.292 HD
ENDBRANCH   8  20
BRANCH   6  22
ATOM     22  O4  UNL     1      13.184  33.814  14.276  0.00  0.00    -0.506 OA
ATOM     23  H8  UNL     1      12.311  33.493  14.559  0.00  0.00    +0.292 HD
ENDBRANCH   6  22
BRANCH   2  24
ATOM     24  O5  UNL     1      17.803  33.628  12.080  0.00  0.00    -0.501 OA
ATOM     25  H9  UNL     1      17.238  33.040  11.494  0.00  0.00    +0.292 HD
ENDBRANCH   2  24
TORSDOF 5
ENDMDL
MODEL 7
REMARK VINA RESULT:      -7.4      3.684      6.939
REMARK  Name = temp_3d.pdb
REMARK  5 active torsions:
REMARK  status: ('A' for Active; 'I' for Inactive)
REMARK    1  A    between atoms: C3_3  and  O6_21
REMARK    2  A    between atoms: C6_6  and  C7_7
REMARK    3  A    between atoms: C8_8  and  O5_20
REMARK    4  A    between atoms: C11_12  and  O4_19
REMARK    5  A    between atoms: C13_14  and  O3_18
REMARK                            x       y       z     vdW  Elec       q    Type
REMARK                         _______ _______ _______ _____ _____    ______ ____
ROOT
ATOM      1  C7  UNL     1      19.094  35.012  14.972  0.00  0.00    +0.181 A 
ATOM      2  C8  UNL     1      19.961  36.067  15.124  0.00  0.00    +0.208 A 
ATOM      3  C9  UNL     1      21.248  36.086  14.668  0.00  0.00    +0.238 A 
ATOM      4  O1  UNL     1      21.936  37.110  14.871  0.00  0.00    -0.283 OA
ATOM      5  C10 UNL     1      21.714  34.976  14.010  0.00  0.00    +0.109 A 
ATOM      6  C11 UNL     1      23.009  35.034  13.567  0.00  0.00    +0.135 A 
ATOM      7  C12 UNL     1      23.445  33.886  12.903  0.00  0.00    +0.091 A 
ATOM      8  C13 UNL     1      22.588  32.793  12.730  0.00  0.00    +0.124 A 
ATOM      9  C14 UNL     1      21.279  32.814  13.212  0.00  0.00    +0.092 A 
ATOM     10  C15 UNL     1      20.836  33.936  13.868  0.00  0.00    +0.147 A 
ATOM     11  O2  UNL     1      19.622  33.996  14.333  0.00  0.00    -0.451 OA
ENDROOT
BRANCH   1  17
ATOM     12  C1  UNL     1      17.221  34.879  16.689  0.00  0.00    +0.015 A 
ATOM     13  C2  UNL     1      15.906  34.754  17.069  0.00  0.00    +0.046 A 
ATOM     14  C3  UNL     1      14.967  34.619  16.069  0.00  0.00    +0.117 A 
ATOM     15  C4  UNL     1      15.384  34.614  14.755  0.00  0.00    +0.046 A 
ATOM     16  C5  UNL     1      16.723  34.743  14.470  0.00  0.00    +0.015 A 
ATOM     17  C6  UNL     1      17.720  34.884  15.413  0.00  0.00    +0.021 A 
BRANCH  14  18
ATOM     18  O6  UNL     1      13.621  34.489  16.379  0.00  0.00    -0.507 OA
ATOM     19  H10 UNL     1      13.317  34.773  17.305  0.00  0.00    +0.292 HD
ENDBRANCH  14  18
ENDBRANCH   1  17
BRANCH   8  20
ATOM     20  O3  UNL     1      22.979  31.630  12.077  0.00  0.00    -0.507 OA
ATOM     21  H7  UNL     1      23.195  31.654  11.083  0.00  0.00    +0.292 HD
ENDBRANCH   8  20
BRANCH   6  22
ATOM     22  O4  UNL     1      23.960  35.980  13.641  0.00  0.00    -0.506 OA
ATOM     23  H8  UNL     1      23.866  36.948  13.622  0.00  0.00    +0.292 HD
ENDBRANCH   6  22
BRANCH   2  24
ATOM     24  O5  UNL     1      19.472  37.174  15.790  0.00  0.00    -0.501 OA
ATOM     25  H9  UNL     1      19.706  38.100  15.477  0.00  0.00    +0.292 HD
ENDBRANCH   2  24
TORSDOF 5
ENDMDL
MODEL 8
REMARK VINA RESULT:      -7.4      5.492      7.334
REMARK  Name = temp_3d.pdb
REMARK  5 active torsions:
REMARK  status: ('A' for Active; 'I' for Inactive)
REMARK    1  A    between atoms: C3_3  and  O6_21
REMARK    2  A    between atoms: C6_6  and  C7_7
REMARK    3  A    between atoms: C8_8  and  O5_20
REMARK    4  A    between atoms: C11_12  and  O4_19
REMARK    5  A    between atoms: C13_14  and  O3_18
REMARK                            x       y       z     vdW  Elec       q    Type
REMARK                         _______ _______ _______ _____ _____    ______ ____
ROOT
ATOM      1  C7  UNL     1      21.134  33.449  13.029  0.00  0.00    +0.181 A 
ATOM      2  C8  UNL     1      21.915  32.812  13.963  0.00  0.00    +0.208 A 
ATOM      3  C9  UNL     1      23.207  33.148  14.254  0.00  0.00    +0.238 A 
ATOM      4  O1  UNL     1      23.811  32.489  15.127  0.00  0.00    -0.283 OA
ATOM      5  C10 UNL     1      23.769  34.196  13.569  0.00  0.00    +0.109 A 
ATOM      6  C11 UNL     1      25.066  34.502  13.889  0.00  0.00    +0.135 A 
ATOM      7  C12 UNL     1      25.601  35.573  13.170  0.00  0.00    +0.091 A 
ATOM      8  C13 UNL     1      24.833  36.244  12.212  0.00  0.00    +0.124 A 
ATOM      9  C14 UNL     1      23.516  35.869  11.945  0.00  0.00    +0.092 A 
ATOM     10  C15 UNL     1      22.975  34.817  12.644  0.00  0.00    +0.147 A 
ATOM     11  O2  UNL     1      21.751  34.436  12.424  0.00  0.00    -0.451 OA
ENDROOT
BRANCH   1  17
ATOM     12  C1  UNL     1      18.605  33.486  13.305  0.00  0.00    +0.015 A 
ATOM     13  C2  UNL     1      17.320  33.212  12.905  0.00  0.00    +0.046 A 
ATOM     14  C3  UNL     1      17.155  32.556  11.704  0.00  0.00    +0.117 A 
ATOM     15  C4  UNL     1      18.271  32.210  10.972  0.00  0.00    +0.046 A 
ATOM     16  C5  UNL     1      19.520  32.525  11.453  0.00  0.00    +0.015 A 
ATOM     17  C6  UNL     1      19.764  33.179  12.642  0.00  0.00    +0.021 A 
BRANCH  14  18
ATOM     18  O6  UNL     1      15.885  32.247  11.238  0.00  0.00    -0.507 OA
ATOM     19  H10 UNL     1      15.686  32.413  10.257  0.00  0.00    +0.292 HD
ENDBRANCH  14  18
ENDBRANCH   1  17
BRANCH   8  20
ATOM     20  O3  UNL     1      25.324  37.314  11.473  0.00  0.00    -0.507 OA
ATOM     21  H7  UNL     1      26.280  37.632  11.612  0.00  0.00    +0.292 HD
ENDBRANCH   8  20
BRANCH   6  22
ATOM     22  O4  UNL     1      25.940  33.979  14.764  0.00  0.00    -0.506 OA
ATOM     23  H8  UNL     1      26.905  34.094  14.810  0.00  0.00    +0.292 HD
ENDBRANCH   6  22
BRANCH   2  24
ATOM     24  O5  UNL     1      21.330  31.761  14.641  0.00  0.00    -0.501 OA
ATOM     25  H9  UNL     1      20.740  31.934  15.436  0.00  0.00    +0.292 HD
ENDBRANCH   2  24
TORSDOF 5
ENDMDL
MODEL 9
REMARK VINA RESULT:      -7.3      1.772      6.600
REMARK  Name = temp_3d.pdb
REMARK  5 active torsions:
REMARK  status: ('A' for Active; 'I' for Inactive)
REMARK    1  A    between atoms: C3_3  and  O6_21
REMARK    2  A    between atoms: C6_6  and  C7_7
REMARK    3  A    between atoms: C8_8  and  O5_20
REMARK    4  A    between atoms: C11_12  and  O4_19
REMARK    5  A    between atoms: C13_14  and  O3_18
REMARK                            x       y       z     vdW  Elec       q    Type
REMARK                         _______ _______ _______ _____ _____    ______ ____
ROOT
ATOM      1  C7  UNL     1      17.617  34.789  15.328  0.00  0.00    +0.181 A 
ATOM      2  C8  UNL     1      16.576  34.552  14.463  0.00  0.00    +0.208 A 
ATOM      3  C9  UNL     1      16.674  33.825  13.311  0.00  0.00    +0.238 A 
ATOM      4  O1  UNL     1      15.650  33.683  12.608  0.00  0.00    -0.283 OA
ATOM      5  C10 UNL     1      17.896  33.290  12.991  0.00  0.00    +0.109 A 
ATOM      6  C11 UNL     1      17.954  32.567  11.828  0.00  0.00    +0.135 A 
ATOM      7  C12 UNL     1      19.214  32.040  11.537  0.00  0.00    +0.091 A 
ATOM      8  C13 UNL     1      20.296  32.262  12.397  0.00  0.00    +0.124 A 
ATOM      9  C14 UNL     1      20.152  33.011  13.565  0.00  0.00    +0.092 A 
ATOM     10  C15 UNL     1      18.919  33.537  13.864  0.00  0.00    +0.147 A 
ATOM     11  O2  UNL     1      18.745  34.241  14.944  0.00  0.00    -0.451 OA
ENDROOT
BRANCH   1  17
ATOM     12  C1  UNL     1      16.645  35.644  17.519  0.00  0.00    +0.015 A 
ATOM     13  C2  UNL     1      16.689  36.369  18.685  0.00  0.00    +0.046 A 
ATOM     14  C3  UNL     1      17.843  37.077  18.947  0.00  0.00    +0.117 A 
ATOM     15  C4  UNL     1      18.880  37.027  18.042  0.00  0.00    +0.046 A 
ATOM     16  C5  UNL     1      18.745  36.274  16.899  0.00  0.00    +0.015 A 
ATOM     17  C6  UNL     1      17.626  35.540  16.567  0.00  0.00    +0.021 A 
BRANCH  14  18
ATOM     18  O6  UNL     1      17.958  37.831  20.108  0.00  0.00    -0.507 OA
ATOM     19  H10 UNL     1      18.865  38.228  20.327  0.00  0.00    +0.292 HD
ENDBRANCH  14  18
ENDBRANCH   1  17
BRANCH   8  20
ATOM     20  O3  UNL     1      21.567  31.757  12.148  0.00  0.00    -0.507 OA
ATOM     21  H7  UNL     1      22.183  32.233  11.493  0.00  0.00    +0.292 HD
ENDBRANCH   8  20
BRANCH   6  22
ATOM     22  O4  UNL     1      17.038  32.256  10.897  0.00  0.00    -0.506 OA
ATOM     23  H8  UNL     1      16.914  31.422  10.412  0.00  0.00    +0.292 HD
ENDBRANCH   6  22
BRANCH   2  24
ATOM     24  O5  UNL     1      15.354  35.100  14.804  0.00  0.00    -0.501 OA
ATOM     25  H9  UNL     1      14.550  34.951  14.221  0.00  0.00    +0.292 HD
ENDBRANCH   2  24
TORSDOF 5
ENDMDL
