MODEL 1
REMARK VINA RESULT:     -10.1      0.000      0.000
REMARK  10 active torsions:
REMARK  status: ('A' for Active; 'I' for Inactive)
REMARK    1  A    between atoms: N3_31  and  C7_30 
REMARK       I    between atoms: N3_31  and  C8_32 
REMARK    2  A    between atoms: C6_29  and  N2_9 
REMARK    3  A    between atoms: C6_29  and  C7_30 
REMARK    4  A    between atoms: C8_32  and  C9_34 
REMARK    5  A    between atoms: C10_11  and  N4_10 
REMARK    6  A    between atoms: C13_15  and  O1_18 
REMARK    7  A    between atoms: C20_21  and  C22_25 
REMARK    8  A    between atoms: C16_19  and  O1_18 
REMARK    9  A    between atoms: N4_10  and  C1_4 
REMARK   10  A    between atoms: C9_34  and  C23_35 
ROOT
HETATM    1  N1  03P A1023      22.047  32.867  12.784  1.00 17.98    -0.203 NA
HETATM    2  C4  03P A1023      22.650  36.593  15.205  1.00 21.42     0.078 A 
HETATM    3  C5  03P A1023      23.829  36.030  14.715  1.00 16.61     0.039 A 
HETATM    4  C1  03P A1023      21.273  33.751  13.456  1.00 17.88     0.181 A 
HETATM    5  C   03P A1023      23.389  32.977  12.724  1.00 20.61     0.201 A 
HETATM    6  C3  03P A1023      21.943  34.816  14.084  1.00 15.94     0.114 A 
HETATM    7  C2  03P A1023      23.320  34.892  14.028  1.00 17.43     0.103 A 
HETATM    8  N   03P A1023      24.040  33.980  13.334  1.00 19.18    -0.223 NA
HETATM    9  N2  03P A1023      21.551  35.860  14.854  1.00 20.76    -0.321 N 
ENDROOT
BRANCH   4  10
HETATM   10  N4  03P A1023      19.920  33.585  13.514  1.00 21.11    -0.225 NA
BRANCH  10  11
HETATM   11  C10 03P A1023      19.126  33.380  12.402  1.00 22.66     0.084 A 
HETATM   12  C11 03P A1023      18.218  34.353  11.963  1.00 19.04     0.033 A 
HETATM   13  C12 03P A1023      17.444  34.112  10.837  1.00 20.40     0.082 A 
HETATM   14 CL   03P A1023      16.294  35.366  10.320  1.00 23.88    -0.080 Cl
HETATM   15  C13 03P A1023      17.526  32.924  10.122  1.00 24.10     0.111 A 
HETATM   16  C14 03P A1023      18.438  31.950  10.535  1.00 21.43     0.027 A 
HETATM   17  C15 03P A1023      19.222  32.176  11.688  1.00 22.75     0.021 A 
BRANCH  15  18
HETATM   18  O1  03P A1023      16.724  32.723   9.007  1.00 22.89    -0.306 OA
BRANCH  18  19
HETATM   19  C16 03P A1023      17.095  31.790   8.076  1.00 22.06     0.100 A 
HETATM   20  C21 03P A1023      16.242  30.725   7.744  1.00 22.70     0.029 A 
HETATM   21  C20 03P A1023      16.639  29.781   6.793  1.00 21.17     0.073 A 
HETATM   22  C19 03P A1023      17.879  29.928   6.153  1.00 24.27     0.004 A 
HETATM   23  C18 03P A1023      18.721  30.991   6.475  1.00 23.60     0.002 A 
HETATM   24  C17 03P A1023      18.325  31.922   7.428  1.00 25.76     0.025 A 
BRANCH  21  25
HETATM   25  C22 03P A1023      15.774  28.610   6.416  1.00 30.16     0.419 C 
HETATM   26  F1  03P A1023      15.274  28.055   7.513  1.00 29.29    -0.166 F 
HETATM   27  F   03P A1023      16.500  27.714   5.772  1.00 28.42    -0.166 F 
HETATM   28  F2  03P A1023      14.777  28.929   5.626  1.00 28.73    -0.166 F 
ENDBRANCH  21  25
ENDBRANCH  18  19
ENDBRANCH  15  18
ENDBRANCH  10  11
ENDBRANCH   4  10
BRANCH   9  29
HETATM   29  C6  03P A1023      20.175  36.287  15.198  1.00 24.01     0.133 C 
BRANCH  29  30
HETATM   30  C7  03P A1023      19.636  36.075  16.608  1.00 30.17     0.153 C 
BRANCH  30  31
HETATM   31  N3  03P A1023      18.166  36.122  16.604  1.00 30.57    -0.236 NA
HETATM   32  C8  03P A1023      17.430  35.339  17.416  1.00 30.73     0.254 C 
HETATM   33  O   03P A1023      17.915  34.526  18.182  1.00 29.30    -0.271 OA
BRANCH  32  34
HETATM   34  C9  03P A1023      15.921  35.486  17.368  1.00 33.39     0.120 C 
BRANCH  34  35
HETATM   35  C23 03P A1023      15.275  34.447  16.442  1.00 44.14     0.136 C 
HETATM   36  C25 03P A1023      13.958  34.908  15.813  1.00 45.99     0.034 C 
HETATM   37  O2  03P A1023      15.021  33.259  17.204  1.00 48.73    -0.226 OA
HETATM   38  C24 03P A1023      16.249  34.084  15.327  1.00 50.94     0.034 C 
ENDBRANCH  34  35
ENDBRANCH  32  34
ENDBRANCH  30  31
ENDBRANCH  29  30
ENDBRANCH   9  29
TORSDOF 10
ENDMDL
MODEL 2
REMARK VINA RESULT:      -9.6      2.161      3.132
REMARK  10 active torsions:
REMARK  status: ('A' for Active; 'I' for Inactive)
REMARK    1  A    between atoms: N3_31  and  C7_30 
REMARK       I    between atoms: N3_31  and  C8_32 
REMARK    2  A    between atoms: C6_29  and  N2_9 
REMARK    3  A    between atoms: C6_29  and  C7_30 
REMARK    4  A    between atoms: C8_32  and  C9_34 
REMARK    5  A    between atoms: C10_11  and  N4_10 
REMARK    6  A    between atoms: C13_15  and  O1_18 
REMARK    7  A    between atoms: C20_21  and  C22_25 
REMARK    8  A    between atoms: C16_19  and  O1_18 
REMARK    9  A    between atoms: N4_10  and  C1_4 
REMARK   10  A    between atoms: C9_34  and  C23_35 
ROOT
HETATM    1  N1  03P A1023      23.628  32.672  12.792  1.00 17.98    -0.203 NA
HETATM    2  C4  03P A1023      23.879  37.136  13.143  1.00 21.42     0.078 A 
HETATM    3  C5  03P A1023      24.900  36.562  12.386  1.00 16.61     0.039 A 
HETATM    4  C1  03P A1023      22.925  33.662  13.391  1.00 17.88     0.181 A 
HETATM    5  C   03P A1023      24.739  32.907  12.066  1.00 20.61     0.201 A 
HETATM    6  C3  03P A1023      23.406  34.971  13.202  1.00 15.94     0.114 A 
HETATM    7  C2  03P A1023      24.560  35.182  12.475  1.00 17.43     0.103 A 
HETATM    8  N   03P A1023      25.216  34.151  11.894  1.00 19.18    -0.223 NA
HETATM    9  N2  03P A1023      23.023  36.194  13.642  1.00 20.76    -0.321 N 
ENDROOT
BRANCH   4  10
HETATM   10  N4  03P A1023      21.822  33.376  14.139  1.00 21.11    -0.225 NA
BRANCH  10  11
HETATM   11  C10 03P A1023      20.545  33.290  13.618  1.00 22.66     0.084 A 
HETATM   12  C11 03P A1023      19.447  33.864  14.273  1.00 19.04     0.033 A 
HETATM   13  C12 03P A1023      18.182  33.762  13.714  1.00 20.40     0.082 A 
HETATM   14 CL   03P A1023      16.814  34.493  14.583  1.00 23.88    -0.080 Cl
HETATM   15  C13 03P A1023      17.954  33.093  12.518  1.00 24.10     0.111 A 
HETATM   16  C14 03P A1023      19.038  32.530  11.842  1.00 21.43     0.027 A 
HETATM   17  C15 03P A1023      20.329  32.614  12.408  1.00 22.75     0.021 A 
BRANCH  15  18
HETATM   18  O1  03P A1023      16.668  33.008  12.000  1.00 22.89    -0.306 OA
BRANCH  18  19
HETATM   19  C16 03P A1023      16.466  33.250  10.667  1.00 22.06     0.100 A 
HETATM   20  C21 03P A1023      16.374  32.192   9.749  1.00 22.70     0.029 A 
HETATM   21  C20 03P A1023      16.171  32.458   8.393  1.00 21.17     0.073 A 
HETATM   22  C19 03P A1023      16.027  33.787   7.966  1.00 24.27     0.004 A 
HETATM   23  C18 03P A1023      16.108  34.836   8.878  1.00 23.60     0.002 A 
HETATM   24  C17 03P A1023      16.320  34.567  10.226  1.00 25.76     0.025 A 
BRANCH  21  25
HETATM   25  C22 03P A1023      16.085  31.363   7.365  1.00 30.16     0.419 C 
HETATM   26  F1  03P A1023      16.543  31.809   6.202  1.00 29.29    -0.166 F 
HETATM   27  F   03P A1023      14.826  30.990   7.220  1.00 28.42    -0.166 F 
HETATM   28  F2  03P A1023      16.763  30.288   7.689  1.00 28.73    -0.166 F 
ENDBRANCH  21  25
ENDBRANCH  18  19
ENDBRANCH  15  18
ENDBRANCH  10  11
ENDBRANCH   4  10
BRANCH   9  29
HETATM   29  C6  03P A1023      21.818  36.557  14.423  1.00 24.01     0.133 C 
BRANCH  29  30
HETATM   30  C7  03P A1023      21.793  36.351  15.934  1.00 30.17     0.153 C 
BRANCH  30  31
HETATM   31  N3  03P A1023      20.443  36.604  16.460  1.00 30.57    -0.236 NA
HETATM   32  C8  03P A1023      20.211  36.730  17.781  1.00 30.73     0.254 C 
HETATM   33  O   03P A1023      21.079  36.619  18.628  1.00 29.30    -0.271 OA
BRANCH  32  34
HETATM   34  C9  03P A1023      18.792  37.029  18.227  1.00 33.39     0.120 C 
BRANCH  34  35
HETATM   35  C23 03P A1023      18.063  35.763  18.698  1.00 44.14     0.136 C 
HETATM   36  C25 03P A1023      18.381  35.365  20.142  1.00 45.99     0.034 C 
HETATM   37  O2  03P A1023      18.437  34.679  17.837  1.00 48.73    -0.226 OA
HETATM   38  C24 03P A1023      16.557  35.964  18.566  1.00 50.94     0.034 C 
ENDBRANCH  34  35
ENDBRANCH  32  34
ENDBRANCH  30  31
ENDBRANCH  29  30
ENDBRANCH   9  29
TORSDOF 10
ENDMDL
MODEL 3
REMARK VINA RESULT:      -9.2      4.558      8.569
REMARK  10 active torsions:
REMARK  status: ('A' for Active; 'I' for Inactive)
REMARK    1  A    between atoms: N3_31  and  C7_30 
REMARK       I    between atoms: N3_31  and  C8_32 
REMARK    2  A    between atoms: C6_29  and  N2_9 
REMARK    3  A    between atoms: C6_29  and  C7_30 
REMARK    4  A    between atoms: C8_32  and  C9_34 
REMARK    5  A    between atoms: C10_11  and  N4_10 
REMARK    6  A    between atoms: C13_15  and  O1_18 
REMARK    7  A    between atoms: C20_21  and  C22_25 
REMARK    8  A    between atoms: C16_19  and  O1_18 
REMARK    9  A    between atoms: N4_10  and  C1_4 
REMARK   10  A    between atoms: C9_34  and  C23_35 
ROOT
HETATM    1  N1  03P A1023      17.906  36.185  17.411  1.00 17.98    -0.203 NA
HETATM    2  C4  03P A1023      14.642  34.199  15.064  1.00 21.42     0.078 A 
HETATM    3  C5  03P A1023      14.328  34.427  16.404  1.00 16.61     0.039 A 
HETATM    4  C1  03P A1023      17.715  35.758  16.140  1.00 17.88     0.181 A 
HETATM    5  C   03P A1023      16.968  36.053  18.370  1.00 20.61     0.201 A 
HETATM    6  C3  03P A1023      16.465  35.177  15.859  1.00 15.94     0.114 A 
HETATM    7  C2  03P A1023      15.532  35.032  16.865  1.00 17.43     0.103 A 
HETATM    8  N   03P A1023      15.779  35.485  18.115  1.00 19.18    -0.223 NA
HETATM    9  N2  03P A1023      15.908  34.616  14.759  1.00 20.76    -0.321 N 
ENDROOT
BRANCH   4  10
HETATM   10  N4  03P A1023      18.703  35.886  15.209  1.00 21.11    -0.225 NA
BRANCH  10  11
HETATM   11  C10 03P A1023      19.746  34.991  15.071  1.00 22.66     0.084 A 
HETATM   12  C11 03P A1023      20.456  34.518  16.182  1.00 19.04     0.033 A 
HETATM   13  C12 03P A1023      21.493  33.614  16.003  1.00 20.40     0.082 A 
HETATM   14 CL   03P A1023      22.377  33.049  17.437  1.00 23.88    -0.080 Cl
HETATM   15  C13 03P A1023      21.868  33.159  14.745  1.00 24.10     0.111 A 
HETATM   16  C14 03P A1023      21.160  33.605  13.627  1.00 21.43     0.027 A 
HETATM   17  C15 03P A1023      20.112  34.537  13.794  1.00 22.75     0.021 A 
BRANCH  15  18
HETATM   18  O1  03P A1023      22.919  32.260  14.612  1.00 22.89    -0.306 OA
BRANCH  18  19
HETATM   19  C16 03P A1023      24.118  32.702  14.120  1.00 22.06     0.100 A 
HETATM   20  C21 03P A1023      24.815  31.962  13.151  1.00 22.70     0.029 A 
HETATM   21  C20 03P A1023      26.038  32.427  12.662  1.00 21.17     0.073 A 
HETATM   22  C19 03P A1023      26.543  33.653  13.123  1.00 24.27     0.004 A 
HETATM   23  C18 03P A1023      25.846  34.392  14.076  1.00 23.60     0.002 A 
HETATM   24  C17 03P A1023      24.633  33.920  14.566  1.00 25.76     0.025 A 
BRANCH  21  25
HETATM   25  C22 03P A1023      26.835  31.664  11.640  1.00 30.16     0.419 C 
HETATM   26  F1  03P A1023      27.192  30.489  12.142  1.00 29.29    -0.166 F 
HETATM   27  F   03P A1023      27.922  32.347  11.327  1.00 28.42    -0.166 F 
HETATM   28  F2  03P A1023      26.186  31.454  10.520  1.00 28.73    -0.166 F 
ENDBRANCH  21  25
ENDBRANCH  18  19
ENDBRANCH  15  18
ENDBRANCH  10  11
ENDBRANCH   4  10
BRANCH   9  29
HETATM   29  C6  03P A1023      16.452  34.544  13.383  1.00 24.01     0.133 C 
BRANCH  29  30
HETATM   30  C7  03P A1023      16.723  33.190  12.736  1.00 30.17     0.153 C 
BRANCH  30  31
HETATM   31  N3  03P A1023      16.384  33.233  11.305  1.00 30.57    -0.236 NA
HETATM   32  C8  03P A1023      17.296  33.573  10.373  1.00 30.73     0.254 C 
HETATM   33  O   03P A1023      18.441  33.892  10.640  1.00 29.30    -0.271 OA
BRANCH  32  34
HETATM   34  C9  03P A1023      16.865  33.552   8.918  1.00 33.39     0.120 C 
BRANCH  34  35
HETATM   35  C23 03P A1023      16.897  32.133   8.334  1.00 44.14     0.136 C 
HETATM   36  C25 03P A1023      15.548  31.412   8.377  1.00 45.99     0.034 C 
HETATM   37  O2  03P A1023      17.848  31.360   9.079  1.00 48.73    -0.226 OA
HETATM   38  C24 03P A1023      17.377  32.190   6.888  1.00 50.94     0.034 C 
ENDBRANCH  34  35
ENDBRANCH  32  34
ENDBRANCH  30  31
ENDBRANCH  29  30
ENDBRANCH   9  29
TORSDOF 10
ENDMDL
MODEL 4
REMARK VINA RESULT:      -9.2      5.318      8.215
REMARK  10 active torsions:
REMARK  status: ('A' for Active; 'I' for Inactive)
REMARK    1  A    between atoms: N3_31  and  C7_30 
REMARK       I    between atoms: N3_31  and  C8_32 
REMARK    2  A    between atoms: C6_29  and  N2_9 
REMARK    3  A    between atoms: C6_29  and  C7_30 
REMARK    4  A    between atoms: C8_32  and  C9_34 
REMARK    5  A    between atoms: C10_11  and  N4_10 
REMARK    6  A    between atoms: C13_15  and  O1_18 
REMARK    7  A    between atoms: C20_21  and  C22_25 
REMARK    8  A    between atoms: C16_19  and  O1_18 
REMARK    9  A    between atoms: N4_10  and  C1_4 
REMARK   10  A    between atoms: C9_34  and  C23_35 
ROOT
HETATM    1  N1  03P A1023      17.728  33.011  12.859  1.00 17.98    -0.203 NA
HETATM    2  C4  03P A1023      16.259  34.966  16.617  1.00 21.42     0.078 A 
HETATM    3  C5  03P A1023      15.362  35.027  15.550  1.00 16.61     0.039 A 
HETATM    4  C1  03P A1023      18.190  33.225  14.113  1.00 17.88     0.181 A 
HETATM    5  C   03P A1023      16.517  33.438  12.448  1.00 20.61     0.201 A 
HETATM    6  C3  03P A1023      17.327  33.909  14.988  1.00 15.94     0.114 A 
HETATM    7  C2  03P A1023      16.102  34.357  14.535  1.00 17.43     0.103 A 
HETATM    8  N   03P A1023      15.693  34.107  13.270  1.00 19.18    -0.223 NA
HETATM    9  N2  03P A1023      17.420  34.334  16.271  1.00 20.76    -0.321 N 
ENDROOT
BRANCH   4  10
HETATM   10  N4  03P A1023      19.434  32.799  14.477  1.00 21.11    -0.225 NA
BRANCH  10  11
HETATM   11  C10 03P A1023      20.596  33.203  13.848  1.00 22.66     0.084 A 
HETATM   12  C11 03P A1023      21.056  34.523  13.942  1.00 19.04     0.033 A 
HETATM   13  C12 03P A1023      22.232  34.889  13.303  1.00 20.40     0.082 A 
HETATM   14 CL   03P A1023      22.775  36.576  13.436  1.00 23.88    -0.080 Cl
HETATM   15  C13 03P A1023      22.977  33.987  12.552  1.00 24.10     0.111 A 
HETATM   16  C14 03P A1023      22.544  32.664  12.463  1.00 21.43     0.027 A 
HETATM   17  C15 03P A1023      21.340  32.282  13.096  1.00 22.75     0.021 A 
BRANCH  15  18
HETATM   18  O1  03P A1023      24.144  34.401  11.922  1.00 22.89    -0.306 OA
BRANCH  18  19
HETATM   19  C16 03P A1023      25.343  33.878  12.327  1.00 22.06     0.100 A 
HETATM   20  C21 03P A1023      25.984  32.879  11.576  1.00 22.70     0.029 A 
HETATM   21  C20 03P A1023      27.206  32.357  12.006  1.00 21.17     0.073 A 
HETATM   22  C19 03P A1023      27.800  32.863  13.172  1.00 24.27     0.004 A 
HETATM   23  C18 03P A1023      27.169  33.862  13.911  1.00 23.60     0.002 A 
HETATM   24  C17 03P A1023      25.948  34.372  13.484  1.00 25.76     0.025 A 
BRANCH  21  25
HETATM   25  C22 03P A1023      27.923  31.272  11.252  1.00 30.16     0.419 C 
HETATM   26  F1  03P A1023      29.096  31.725  10.828  1.00 29.29    -0.166 F 
HETATM   27  F   03P A1023      27.200  30.905  10.209  1.00 28.42    -0.166 F 
HETATM   28  F2  03P A1023      28.134  30.191  11.965  1.00 28.73    -0.166 F 
ENDBRANCH  21  25
ENDBRANCH  18  19
ENDBRANCH  15  18
ENDBRANCH  10  11
ENDBRANCH   4  10
BRANCH   9  29
HETATM   29  C6  03P A1023      18.504  34.083  17.249  1.00 24.01     0.133 C 
BRANCH  29  30
HETATM   30  C7  03P A1023      19.731  34.988  17.282  1.00 30.17     0.153 C 
BRANCH  30  31
HETATM   31  N3  03P A1023      20.958  34.180  17.350  1.00 30.57    -0.236 NA
HETATM   32  C8  03P A1023      21.997  34.537  18.129  1.00 30.73     0.254 C 
HETATM   33  O   03P A1023      22.013  35.552  18.802  1.00 29.30    -0.271 OA
BRANCH  32  34
HETATM   34  C9  03P A1023      23.205  33.619  18.165  1.00 33.39     0.120 C 
BRANCH  34  35
HETATM   35  C23 03P A1023      24.086  33.785  16.919  1.00 44.14     0.136 C 
HETATM   36  C25 03P A1023      24.176  35.226  16.409  1.00 45.99     0.034 C 
HETATM   37  O2  03P A1023      23.545  32.968  15.872  1.00 48.73    -0.226 OA
HETATM   38  C24 03P A1023      25.493  33.283  17.220  1.00 50.94     0.034 C 
ENDBRANCH  34  35
ENDBRANCH  32  34
ENDBRANCH  30  31
ENDBRANCH  29  30
ENDBRANCH   9  29
TORSDOF 10
ENDMDL
MODEL 5
REMARK VINA RESULT:      -9.0      5.353      8.972
REMARK  10 active torsions:
REMARK  status: ('A' for Active; 'I' for Inactive)
REMARK    1  A    between atoms: N3_31  and  C7_30 
REMARK       I    between atoms: N3_31  and  C8_32 
REMARK    2  A    between atoms: C6_29  and  N2_9 
REMARK    3  A    between atoms: C6_29  and  C7_30 
REMARK    4  A    between atoms: C8_32  and  C9_34 
REMARK    5  A    between atoms: C10_11  and  N4_10 
REMARK    6  A    between atoms: C13_15  and  O1_18 
REMARK    7  A    between atoms: C20_21  and  C22_25 
REMARK    8  A    between atoms: C16_19  and  O1_18 
REMARK    9  A    between atoms: N4_10  and  C1_4 
REMARK   10  A    between atoms: C9_34  and  C23_35 
ROOT
HETATM    1  N1  03P A1023      19.391  34.425  17.440  1.00 17.98    -0.203 NA
HETATM    2  C4  03P A1023      16.358  34.220  14.144  1.00 21.42     0.078 A 
HETATM    3  C5  03P A1023      16.023  35.095  15.178  1.00 16.61     0.039 A 
HETATM    4  C1  03P A1023      19.239  33.761  16.271  1.00 17.88     0.181 A 
HETATM    5  C   03P A1023      18.476  35.300  17.902  1.00 20.61     0.201 A 
HETATM    6  C3  03P A1023      18.072  34.045  15.539  1.00 15.94     0.114 A 
HETATM    7  C2  03P A1023      17.139  34.927  16.047  1.00 17.43     0.103 A 
HETATM    8  N   03P A1023      17.351  35.565  17.220  1.00 19.18    -0.223 NA
HETATM    9  N2  03P A1023      17.547  33.586  14.377  1.00 20.76    -0.321 N 
ENDROOT
BRANCH   4  10
HETATM   10  N4  03P A1023      20.178  32.863  15.855  1.00 21.11    -0.225 NA
BRANCH  10  11
HETATM   11  C10 03P A1023      21.396  33.225  15.313  1.00 22.66     0.084 A 
HETATM   12  C11 03P A1023      22.593  33.043  16.018  1.00 19.04     0.033 A 
HETATM   13  C12 03P A1023      23.797  33.412  15.436  1.00 20.40     0.082 A 
HETATM   14 CL   03P A1023      25.292  33.177  16.370  1.00 23.88    -0.080 Cl
HETATM   15  C13 03P A1023      23.864  33.974  14.167  1.00 24.10     0.111 A 
HETATM   16  C14 03P A1023      22.683  34.145  13.442  1.00 21.43     0.027 A 
HETATM   17  C15 03P A1023      21.449  33.788  14.029  1.00 22.75     0.021 A 
BRANCH  15  18
HETATM   18  O1  03P A1023      25.091  34.337  13.628  1.00 22.89    -0.306 OA
BRANCH  18  19
HETATM   19  C16 03P A1023      25.737  33.467  12.790  1.00 22.06     0.100 A 
HETATM   20  C21 03P A1023      27.139  33.417  12.746  1.00 22.70     0.029 A 
HETATM   21  C20 03P A1023      27.781  32.525  11.882  1.00 21.17     0.073 A 
HETATM   22  C19 03P A1023      27.010  31.661  11.089  1.00 24.27     0.004 A 
HETATM   23  C18 03P A1023      25.619  31.704  11.141  1.00 23.60     0.002 A 
HETATM   24  C17 03P A1023      24.986  32.600  11.995  1.00 25.76     0.025 A 
BRANCH  21  25
HETATM   25  C22 03P A1023      29.278  32.445  11.780  1.00 30.16     0.419 C 
HETATM   26  F1  03P A1023      29.732  33.475  11.077  1.00 29.29    -0.166 F 
HETATM   27  F   03P A1023      29.621  31.323  11.172  1.00 28.42    -0.166 F 
HETATM   28  F2  03P A1023      29.883  32.444  12.944  1.00 28.73    -0.166 F 
ENDBRANCH  21  25
ENDBRANCH  18  19
ENDBRANCH  15  18
ENDBRANCH  10  11
ENDBRANCH   4  10
BRANCH   9  29
HETATM   29  C6  03P A1023      18.152  32.658  13.394  1.00 24.01     0.133 C 
BRANCH  29  30
HETATM   30  C7  03P A1023      18.462  33.136  11.979  1.00 30.17     0.153 C 
BRANCH  30  31
HETATM   31  N3  03P A1023      17.665  32.379  11.001  1.00 30.57    -0.236 NA
HETATM   32  C8  03P A1023      16.659  32.953  10.314  1.00 30.73     0.254 C 
HETATM   33  O   03P A1023      16.318  34.112  10.466  1.00 29.30    -0.271 OA
BRANCH  32  34
HETATM   34  C9  03P A1023      15.918  32.103   9.298  1.00 33.39     0.120 C 
BRANCH  34  35
HETATM   35  C23 03P A1023      16.297  32.476   7.858  1.00 44.14     0.136 C 
HETATM   36  C25 03P A1023      17.744  32.946   7.697  1.00 45.99     0.034 C 
HETATM   37  O2  03P A1023      15.428  33.530   7.421  1.00 48.73    -0.226 OA
HETATM   38  C24 03P A1023      16.067  31.277   6.944  1.00 50.94     0.034 C 
ENDBRANCH  34  35
ENDBRANCH  32  34
ENDBRANCH  30  31
ENDBRANCH  29  30
ENDBRANCH   9  29
TORSDOF 10
ENDMDL
MODEL 6
REMARK VINA RESULT:      -8.9      4.511      7.024
REMARK  10 active torsions:
REMARK  status: ('A' for Active; 'I' for Inactive)
REMARK    1  A    between atoms: N3_31  and  C7_30 
REMARK       I    between atoms: N3_31  and  C8_32 
REMARK    2  A    between atoms: C6_29  and  N2_9 
REMARK    3  A    between atoms: C6_29  and  C7_30 
REMARK    4  A    between atoms: C8_32  and  C9_34 
REMARK    5  A    between atoms: C10_11  and  N4_10 
REMARK    6  A    between atoms: C13_15  and  O1_18 
REMARK    7  A    between atoms: C20_21  and  C22_25 
REMARK    8  A    between atoms: C16_19  and  O1_18 
REMARK    9  A    between atoms: N4_10  and  C1_4 
REMARK   10  A    between atoms: C9_34  and  C23_35 
ROOT
HETATM    1  N1  03P A1023      24.865  32.393  11.458  1.00 17.98    -0.203 NA
HETATM    2  C4  03P A1023      27.750  34.669  14.027  1.00 21.42     0.078 A 
HETATM    3  C5  03P A1023      28.246  33.459  13.543  1.00 16.61     0.039 A 
HETATM    4  C1  03P A1023      24.876  33.559  12.146  1.00 17.88     0.181 A 
HETATM    5  C   03P A1023      25.921  31.556  11.431  1.00 20.61     0.201 A 
HETATM    6  C3  03P A1023      26.067  33.871  12.826  1.00 15.94     0.114 A 
HETATM    7  C2  03P A1023      27.125  32.984  12.803  1.00 17.43     0.103 A 
HETATM    8  N   03P A1023      27.056  31.836  12.091  1.00 19.18    -0.223 NA
HETATM    9  N2  03P A1023      26.462  34.890  13.627  1.00 20.76    -0.321 N 
ENDROOT
BRANCH   4  10
HETATM   10  N4  03P A1023      23.774  34.362  12.168  1.00 21.11    -0.225 NA
BRANCH  10  11
HETATM   11  C10 03P A1023      22.765  34.252  13.105  1.00 22.66     0.084 A 
HETATM   12  C11 03P A1023      22.123  35.383  13.625  1.00 19.04     0.033 A 
HETATM   13  C12 03P A1023      21.109  35.230  14.559  1.00 20.40     0.082 A 
HETATM   14 CL   03P A1023      20.328  36.691  15.204  1.00 23.88    -0.080 Cl
HETATM   15  C13 03P A1023      20.705  33.981  15.015  1.00 24.10     0.111 A 
HETATM   16  C14 03P A1023      21.321  32.842  14.495  1.00 21.43     0.027 A 
HETATM   17  C15 03P A1023      22.366  32.984  13.554  1.00 22.75     0.021 A 
BRANCH  15  18
HETATM   18  O1  03P A1023      19.691  33.876  15.958  1.00 22.89    -0.306 OA
BRANCH  18  19
HETATM   19  C16 03P A1023      18.397  34.105  15.576  1.00 22.06     0.100 A 
HETATM   20  C21 03P A1023      17.936  33.700  14.313  1.00 22.70     0.029 A 
HETATM   21  C20 03P A1023      16.612  33.945  13.939  1.00 21.17     0.073 A 
HETATM   22  C19 03P A1023      15.743  34.566  14.849  1.00 24.27     0.004 A 
HETATM   23  C18 03P A1023      16.197  34.958  16.107  1.00 23.60     0.002 A 
HETATM   24  C17 03P A1023      17.518  34.721  16.470  1.00 25.76     0.025 A 
BRANCH  21  25
HETATM   25  C22 03P A1023      16.074  33.552  12.592  1.00 30.16     0.419 C 
HETATM   26  F1  03P A1023      14.749  33.498  12.640  1.00 29.29    -0.166 F 
HETATM   27  F   03P A1023      16.542  32.362  12.259  1.00 28.42    -0.166 F 
HETATM   28  F2  03P A1023      16.418  34.375  11.630  1.00 28.73    -0.166 F 
ENDBRANCH  21  25
ENDBRANCH  18  19
ENDBRANCH  15  18
ENDBRANCH  10  11
ENDBRANCH   4  10
BRANCH   9  29
HETATM   29  C6  03P A1023      25.736  36.139  13.956  1.00 24.01     0.133 C 
BRANCH  29  30
HETATM   30  C7  03P A1023      25.137  36.333  15.345  1.00 30.17     0.153 C 
BRANCH  30  31
HETATM   31  N3  03P A1023      25.021  35.038  16.034  1.00 30.57    -0.236 NA
HETATM   32  C8  03P A1023      24.040  34.798  16.926  1.00 30.73     0.254 C 
HETATM   33  O   03P A1023      23.207  35.627  17.246  1.00 29.30    -0.271 OA
BRANCH  32  34
HETATM   34  C9  03P A1023      23.978  33.419  17.557  1.00 33.39     0.120 C 
BRANCH  34  35
HETATM   35  C23 03P A1023      24.857  33.326  18.811  1.00 44.14     0.136 C 
HETATM   36  C25 03P A1023      24.214  32.551  19.964  1.00 45.99     0.034 C 
HETATM   37  O2  03P A1023      25.142  34.656  19.264  1.00 48.73    -0.226 OA
HETATM   38  C24 03P A1023      26.183  32.663  18.455  1.00 50.94     0.034 C 
ENDBRANCH  34  35
ENDBRANCH  32  34
ENDBRANCH  30  31
ENDBRANCH  29  30
ENDBRANCH   9  29
TORSDOF 10
ENDMDL
MODEL 7
REMARK VINA RESULT:      -8.8      4.945      6.227
REMARK  10 active torsions:
REMARK  status: ('A' for Active; 'I' for Inactive)
REMARK    1  A    between atoms: N3_31  and  C7_30 
REMARK       I    between atoms: N3_31  and  C8_32 
REMARK    2  A    between atoms: C6_29  and  N2_9 
REMARK    3  A    between atoms: C6_29  and  C7_30 
REMARK    4  A    between atoms: C8_32  and  C9_34 
REMARK    5  A    between atoms: C10_11  and  N4_10 
REMARK    6  A    between atoms: C13_15  and  O1_18 
REMARK    7  A    between atoms: C20_21  and  C22_25 
REMARK    8  A    between atoms: C16_19  and  O1_18 
REMARK    9  A    between atoms: N4_10  and  C1_4 
REMARK   10  A    between atoms: C9_34  and  C23_35 
ROOT
HETATM    1  N1  03P A1023      24.026  32.367  12.383  1.00 17.98    -0.203 NA
HETATM    2  C4  03P A1023      25.964  34.276  15.947  1.00 21.42     0.078 A 
HETATM    3  C5  03P A1023      26.766  34.243  14.807  1.00 16.61     0.039 A 
HETATM    4  C1  03P A1023      23.697  32.631  13.669  1.00 17.88     0.181 A 
HETATM    5  C   03P A1023      25.224  32.692  11.858  1.00 20.61     0.201 A 
HETATM    6  C3  03P A1023      24.674  33.285  14.441  1.00 15.94     0.114 A 
HETATM    7  C2  03P A1023      25.903  33.584  13.887  1.00 17.43     0.103 A 
HETATM    8  N   03P A1023      26.170  33.301  12.591  1.00 19.18    -0.223 NA
HETATM    9  N2  03P A1023      24.749  33.686  15.733  1.00 20.76    -0.321 N 
ENDROOT
BRANCH   4  10
HETATM   10  N4  03P A1023      22.483  32.260  14.166  1.00 21.11    -0.225 NA
BRANCH  10  11
HETATM   11  C10 03P A1023      21.286  32.814  13.754  1.00 22.66     0.084 A 
HETATM   12  C11 03P A1023      20.545  32.256  12.703  1.00 19.04     0.033 A 
HETATM   13  C12 03P A1023      19.344  32.838  12.324  1.00 20.40     0.082 A 
HETATM   14 CL   03P A1023      18.441  32.108  10.978  1.00 23.88    -0.080 Cl
HETATM   15  C13 03P A1023      18.843  33.975  12.946  1.00 24.10     0.111 A 
HETATM   16  C14 03P A1023      19.559  34.534  14.007  1.00 21.43     0.027 A 
HETATM   17  C15 03P A1023      20.791  33.960  14.393  1.00 22.75     0.021 A 
BRANCH  15  18
HETATM   18  O1  03P A1023      17.641  34.528  12.527  1.00 22.89    -0.306 OA
BRANCH  18  19
HETATM   19  C16 03P A1023      16.501  34.268  13.239  1.00 22.06     0.100 A 
HETATM   20  C21 03P A1023      16.397  34.634  14.591  1.00 22.70     0.029 A 
HETATM   21  C20 03P A1023      15.226  34.358  15.303  1.00 21.17     0.073 A 
HETATM   22  C19 03P A1023      14.149  33.745  14.645  1.00 24.27     0.004 A 
HETATM   23  C18 03P A1023      14.248  33.392  13.301  1.00 23.60     0.002 A 
HETATM   24  C17 03P A1023      15.419  33.660  12.599  1.00 25.76     0.025 A 
BRANCH  21  25
HETATM   25  C22 03P A1023      15.071  34.709  16.756  1.00 30.16     0.419 C 
HETATM   26  F1  03P A1023      14.778  33.615  17.449  1.00 29.29    -0.166 F 
HETATM   27  F   03P A1023      14.091  35.584  16.897  1.00 28.42    -0.166 F 
HETATM   28  F2  03P A1023      16.143  35.253  17.281  1.00 28.73    -0.166 F 
ENDBRANCH  21  25
ENDBRANCH  18  19
ENDBRANCH  15  18
ENDBRANCH  10  11
ENDBRANCH   4  10
BRANCH   9  29
HETATM   29  C6  03P A1023      23.693  33.654  16.771  1.00 24.01     0.133 C 
BRANCH  29  30
HETATM   30  C7  03P A1023      23.173  34.954  17.375  1.00 30.17     0.153 C 
BRANCH  30  31
HETATM   31  N3  03P A1023      21.825  34.753  17.929  1.00 30.57    -0.236 NA
HETATM   32  C8  03P A1023      20.801  35.570  17.613  1.00 30.73     0.254 C 
HETATM   33  O   03P A1023      20.916  36.536  16.880  1.00 29.30    -0.271 OA
BRANCH  32  34
HETATM   34  C9  03P A1023      19.438  35.261  18.203  1.00 33.39     0.120 C 
BRANCH  34  35
HETATM   35  C23 03P A1023      19.118  36.162  19.404  1.00 44.14     0.136 C 
HETATM   36  C25 03P A1023      18.146  37.300  19.086  1.00 45.99     0.034 C 
HETATM   37  O2  03P A1023      20.345  36.735  19.878  1.00 48.73    -0.226 OA
HETATM   38  C24 03P A1023      18.534  35.319  20.532  1.00 50.94     0.034 C 
ENDBRANCH  34  35
ENDBRANCH  32  34
ENDBRANCH  30  31
ENDBRANCH  29  30
ENDBRANCH   9  29
TORSDOF 10
ENDMDL
MODEL 8
REMARK VINA RESULT:      -8.7      4.578      8.657
REMARK  10 active torsions:
REMARK  status: ('A' for Active; 'I' for Inactive)
REMARK    1  A    between atoms: N3_31  and  C7_30 
REMARK       I    between atoms: N3_31  and  C8_32 
REMARK    2  A    between atoms: C6_29  and  N2_9 
REMARK    3  A    between atoms: C6_29  and  C7_30 
REMARK    4  A    between atoms: C8_32  and  C9_34 
REMARK    5  A    between atoms: C10_11  and  N4_10 
REMARK    6  A    between atoms: C13_15  and  O1_18 
REMARK    7  A    between atoms: C20_21  and  C22_25 
REMARK    8  A    between atoms: C16_19  and  O1_18 
REMARK    9  A    between atoms: N4_10  and  C1_4 
REMARK   10  A    between atoms: C9_34  and  C23_35 
ROOT
HETATM    1  N1  03P A1023      19.255  34.244  17.929  1.00 17.98    -0.203 NA
HETATM    2  C4  03P A1023      16.082  34.413  14.765  1.00 21.42     0.078 A 
HETATM    3  C5  03P A1023      15.736  35.047  15.959  1.00 16.61     0.039 A 
HETATM    4  C1  03P A1023      19.094  33.802  16.660  1.00 17.88     0.181 A 
HETATM    5  C   03P A1023      18.302  34.938  18.583  1.00 20.61     0.201 A 
HETATM    6  C3  03P A1023      17.873  34.121  16.039  1.00 15.94     0.114 A 
HETATM    7  C2  03P A1023      16.904  34.811  16.739  1.00 17.43     0.103 A 
HETATM    8  N   03P A1023      17.127  35.233  18.005  1.00 19.18    -0.223 NA
HETATM    9  N2  03P A1023      17.325  33.848  14.830  1.00 20.76    -0.321 N 
ENDROOT
BRANCH   4  10
HETATM   10  N4  03P A1023      20.074  33.079  16.046  1.00 21.11    -0.225 NA
BRANCH  10  11
HETATM   11  C10 03P A1023      21.316  33.593  15.724  1.00 22.66     0.084 A 
HETATM   12  C11 03P A1023      22.463  33.242  16.448  1.00 19.04     0.033 A 
HETATM   13  C12 03P A1023      23.692  33.774  16.088  1.00 20.40     0.082 A 
HETATM   14 CL   03P A1023      25.121  33.314  17.041  1.00 23.88    -0.080 Cl
HETATM   15  C13 03P A1023      23.833  34.662  15.029  1.00 24.10     0.111 A 
HETATM   16  C14 03P A1023      22.705  35.009  14.285  1.00 21.43     0.027 A 
HETATM   17  C15 03P A1023      21.444  34.487  14.650  1.00 22.75     0.021 A 
BRANCH  15  18
HETATM   18  O1  03P A1023      25.084  35.176  14.711  1.00 22.89    -0.306 OA
BRANCH  18  19
HETATM   19  C16 03P A1023      25.955  34.412  13.982  1.00 22.06     0.100 A 
HETATM   20  C21 03P A1023      25.485  33.504  13.019  1.00 22.70     0.029 A 
HETATM   21  C20 03P A1023      26.389  32.730  12.287  1.00 21.17     0.073 A 
HETATM   22  C19 03P A1023      27.766  32.895  12.499  1.00 24.27     0.004 A 
HETATM   23  C18 03P A1023      28.233  33.804  13.447  1.00 23.60     0.002 A 
HETATM   24  C17 03P A1023      27.329  34.564  14.179  1.00 25.76     0.025 A 
BRANCH  21  25
HETATM   25  C22 03P A1023      25.938  31.729  11.260  1.00 30.16     0.419 C 
HETATM   26  F1  03P A1023      25.008  32.273  10.486  1.00 29.29    -0.166 F 
HETATM   27  F   03P A1023      25.430  30.671  11.867  1.00 28.42    -0.166 F 
HETATM   28  F2  03P A1023      26.909  31.294  10.492  1.00 28.73    -0.166 F 
ENDBRANCH  21  25
ENDBRANCH  18  19
ENDBRANCH  15  18
ENDBRANCH  10  11
ENDBRANCH   4  10
BRANCH   9  29
HETATM   29  C6  03P A1023      17.947  33.175  13.666  1.00 24.01     0.133 C 
BRANCH  29  30
HETATM   30  C7  03P A1023      17.091  32.352  12.710  1.00 30.17     0.153 C 
BRANCH  30  31
HETATM   31  N3  03P A1023      16.887  33.084  11.450  1.00 30.57    -0.236 NA
HETATM   32  C8  03P A1023      17.593  32.792  10.340  1.00 30.73     0.254 C 
HETATM   33  O   03P A1023      18.457  31.934  10.302  1.00 29.30    -0.271 OA
BRANCH  32  34
HETATM   34  C9  03P A1023      17.286  33.575   9.078  1.00 33.39     0.120 C 
BRANCH  34  35
HETATM   35  C23 03P A1023      16.434  32.762   8.094  1.00 44.14     0.136 C 
HETATM   36  C25 03P A1023      15.613  31.651   8.753  1.00 45.99     0.034 C 
HETATM   37  O2  03P A1023      17.308  32.165   7.126  1.00 48.73    -0.226 OA
HETATM   38  C24 03P A1023      15.486  33.695   7.349  1.00 50.94     0.034 C 
ENDBRANCH  34  35
ENDBRANCH  32  34
ENDBRANCH  30  31
ENDBRANCH  29  30
ENDBRANCH   9  29
TORSDOF 10
ENDMDL
MODEL 9
REMARK VINA RESULT:      -8.3      5.072      8.258
REMARK  10 active torsions:
REMARK  status: ('A' for Active; 'I' for Inactive)
REMARK    1  A    between atoms: N3_31  and  C7_30 
REMARK       I    between atoms: N3_31  and  C8_32 
REMARK    2  A    between atoms: C6_29  and  N2_9 
REMARK    3  A    between atoms: C6_29  and  C7_30 
REMARK    4  A    between atoms: C8_32  and  C9_34 
REMARK    5  A    between atoms: C10_11  and  N4_10 
REMARK    6  A    between atoms: C13_15  and  O1_18 
REMARK    7  A    between atoms: C20_21  and  C22_25 
REMARK    8  A    between atoms: C16_19  and  O1_18 
REMARK    9  A    between atoms: N4_10  and  C1_4 
REMARK   10  A    between atoms: C9_34  and  C23_35 
ROOT
HETATM    1  N1  03P A1023      24.217  34.031  12.405  1.00 17.98    -0.203 NA
HETATM    2  C4  03P A1023      27.925  32.647  14.513  1.00 21.42     0.078 A 
HETATM    3  C5  03P A1023      27.796  32.171  13.208  1.00 16.61     0.039 A 
HETATM    4  C1  03P A1023      24.785  34.191  13.623  1.00 17.88     0.181 A 
HETATM    5  C   03P A1023      24.775  33.277  11.437  1.00 20.61     0.201 A 
HETATM    6  C3  03P A1023      26.015  33.539  13.829  1.00 15.94     0.114 A 
HETATM    7  C2  03P A1023      26.552  32.753  12.830  1.00 17.43     0.103 A 
HETATM    8  N   03P A1023      25.940  32.637  11.629  1.00 19.18    -0.223 NA
HETATM    9  N2  03P A1023      26.863  33.425  14.879  1.00 20.76    -0.321 N 
ENDROOT
BRANCH   4  10
HETATM   10  N4  03P A1023      24.171  34.941  14.583  1.00 21.11    -0.225 NA
BRANCH  10  11
HETATM   11  C10 03P A1023      22.868  34.737  14.996  1.00 22.66     0.084 A 
HETATM   12  C11 03P A1023      21.950  35.794  15.067  1.00 19.04     0.033 A 
HETATM   13  C12 03P A1023      20.649  35.547  15.479  1.00 20.40     0.082 A 
HETATM   14 CL   03P A1023      19.519  36.917  15.569  1.00 23.88    -0.080 Cl
HETATM   15  C13 03P A1023      20.215  34.278  15.840  1.00 24.10     0.111 A 
HETATM   16  C14 03P A1023      21.110  33.210  15.758  1.00 21.43     0.027 A 
HETATM   17  C15 03P A1023      22.442  33.449  15.354  1.00 22.75     0.021 A 
BRANCH  15  18
HETATM   18  O1  03P A1023      18.904  34.080  16.256  1.00 22.89    -0.306 OA
BRANCH  18  19
HETATM   19  C16 03P A1023      17.900  34.085  15.325  1.00 22.06     0.100 A 
HETATM   20  C21 03P A1023      18.144  33.689  14.000  1.00 22.70     0.029 A 
HETATM   21  C20 03P A1023      17.107  33.703  13.063  1.00 21.17     0.073 A 
HETATM   22  C19 03P A1023      15.818  34.083  13.468  1.00 24.27     0.004 A 
HETATM   23  C18 03P A1023      15.574  34.465  14.786  1.00 23.60     0.002 A 
HETATM   24  C17 03P A1023      16.612  34.458  15.711  1.00 25.76     0.025 A 
BRANCH  21  25
HETATM   25  C22 03P A1023      17.319  33.310  11.628  1.00 30.16     0.419 C 
HETATM   26  F1  03P A1023      18.047  32.202  11.572  1.00 29.29    -0.166 F 
HETATM   27  F   03P A1023      17.957  34.277  10.993  1.00 28.42    -0.166 F 
HETATM   28  F2  03P A1023      16.202  33.101  10.972  1.00 28.73    -0.166 F 
ENDBRANCH  21  25
ENDBRANCH  18  19
ENDBRANCH  15  18
ENDBRANCH  10  11
ENDBRANCH   4  10
BRANCH   9  29
HETATM   29  C6  03P A1023      26.798  34.103  16.195  1.00 24.01     0.133 C 
BRANCH  29  30
HETATM   30  C7  03P A1023      26.350  33.333  17.432  1.00 30.17     0.153 C 
BRANCH  30  31
HETATM   31  N3  03P A1023      27.519  32.848  18.180  1.00 30.57    -0.236 NA
HETATM   32  C8  03P A1023      27.408  32.370  19.435  1.00 30.73     0.254 C 
HETATM   33  O   03P A1023      26.355  32.329  20.046  1.00 29.30    -0.271 OA
BRANCH  32  34
HETATM   34  C9  03P A1023      28.664  31.855  20.113  1.00 33.39     0.120 C 
BRANCH  34  35
HETATM   35  C23 03P A1023      28.998  30.420  19.682  1.00 44.14     0.136 C 
HETATM   36  C25 03P A1023      30.044  30.333  18.567  1.00 45.99     0.034 C 
HETATM   37  O2  03P A1023      27.793  29.795  19.220  1.00 48.73    -0.226 OA
HETATM   38  C24 03P A1023      29.499  29.630  20.886  1.00 50.94     0.034 C 
ENDBRANCH  34  35
ENDBRANCH  32  34
ENDBRANCH  30  31
ENDBRANCH  29  30
ENDBRANCH   9  29
TORSDOF 10
ENDMDL
